McPAT (version 1.0 of Aug, 2013) is computing the target processor...
 

McPAT (version 1.0 of Aug, 2013) results  (current print level is 5)
*****************************************************************************************
  Technology 45 nm
  Using Long Channel Devices When Appropriate
  Interconnect metal projection= aggressive interconnect technology projection
  Core clock Rate(MHz) 1600

*****************************************************************************************
Processor: 
  Area = 89.4473 mm^2
  Peak Power = 12.2743 W
  Total Leakage = 5.32452 W
  Peak Dynamic = 6.94978 W
  Subthreshold Leakage = 4.99377 W
  Subthreshold Leakage with power gating = 2.70508 W
  Gate Leakage = 0.330747 W
  Runtime Dynamic = 1.91166 W

  Total Cores: 1 cores 
  Device Type= ITRS high performance device type
    Area = 26.7488 mm^2
    Peak Dynamic = 6.94661 W
    Subthreshold Leakage = 2.23476 W
    Subthreshold Leakage with power gating = 1.06503 W
    Gate Leakage = 0.285988 W
    Runtime Dynamic = 1.90985 W

  Total L3s: 
  Device Type= ITRS high performance device type
    Area = 62.2194 mm^2
    Peak Dynamic = 0.00317322 W
    Subthreshold Leakage = 2.73753 W
    Subthreshold Leakage with power gating = 1.55288 W
    Gate Leakage = 0.0404867 W
    Runtime Dynamic = 0.00181116 W

  Total NoCs (Network/Bus): 
  Device Type= ITRS high performance device type
    Area = 0.479024 mm^2
    Peak Dynamic = 0 W
    Subthreshold Leakage = 0.0214855 W
    Subthreshold Leakage with power gating = 0.00966848 W
    Gate Leakage = 0.00427242 W
    Runtime Dynamic = 0 W

*****************************************************************************************
Core:
      Area = 26.7488 mm^2
      Peak Dynamic = 6.94661 W
      Subthreshold Leakage = 2.23476 W
      Subthreshold Leakage with power gating = 1.06503 W
      Gate Leakage = 0.285988 W
      Runtime Dynamic = 1.90985 W

      Instruction Fetch Unit:
        Area = 4.82339 mm^2
        Peak Dynamic = 2.41945 W
        Subthreshold Leakage = 0.365421 W
        Subthreshold Leakage with power gating = 0.180734 W
        Gate Leakage = 0.0483102 W
        Runtime Dynamic = 0.119731 W

          Instruction Cache:
            Area = 2.93588 mm^2
            Peak Dynamic = 1.93476 W
            Subthreshold Leakage = 0.138238 W
            Subthreshold Leakage with power gating = 0.0724173 W
            Gate Leakage = 0.024379 W
            Runtime Dynamic = 0 W

          Branch Target Buffer:
            Area = 0.789969 mm^2
            Peak Dynamic = 0.0809601 W
            Subthreshold Leakage = 0.0368499 W
            Subthreshold Leakage with power gating = 0.021557 W
            Gate Leakage = 0.00333823 W
            Runtime Dynamic = 0.00656403 W

          Branch Predictor:
            Area = 0.139613 mm^2
            Peak Dynamic = 0.0270402 W
            Subthreshold Leakage = 0.00802563 W
            Subthreshold Leakage with power gating = 0.00469502 W
            Gate Leakage = 0.000631381 W
            Runtime Dynamic = 0.00268354 W

              Global Predictor:
                Area = 0.0443718 mm^2
                Peak Dynamic = 0.00780437 W
                Subthreshold Leakage = 0.00305314 W
                Subthreshold Leakage with power gating = 0.00178441 W
                Gate Leakage = 0.000231968 W
                Runtime Dynamic = 0.000776965 W

              Local Predictor:
              L1_Local Predictor:
                Area = 0.0264164 mm^2
                Peak Dynamic = 0.00635992 W
                Subthreshold Leakage = 0.00154459 W
                Subthreshold Leakage with power gating = 0.000902955 W
                Gate Leakage = 0.00012879 W
                Runtime Dynamic = 0.000680257 W

              L2_Local Predictor:
                Area = 0.0135618 mm^2
                Peak Dynamic = 0.00324353 W
                Subthreshold Leakage = 0.000782464 W
                Subthreshold Leakage with power gating = 0.000456083 W
                Gate Leakage = 6.76797e-05 W
                Runtime Dynamic = 0.000347094 W

              Chooser:
                Area = 0.0443718 mm^2
                Peak Dynamic = 0.00780437 W
                Subthreshold Leakage = 0.00305314 W
                Subthreshold Leakage with power gating = 0.00178441 W
                Gate Leakage = 0.000231968 W
                Runtime Dynamic = 0.000776965 W

              RAS:
                Area = 0.0108915 mm^2
                Peak Dynamic = 0.0050715 W
                Subthreshold Leakage = 0.000374753 W
                Subthreshold Leakage with power gating = 0.000223242 W
                Gate Leakage = 3.86548e-05 W
                Runtime Dynamic = 0.000449355 W

          Instruction Buffer:
            Area = 0.00619634 mm^2
            Peak Dynamic = 0.0429076 W
            Subthreshold Leakage = 0.000247453 W
            Subthreshold Leakage with power gating = 0.000138425 W
            Gate Leakage = 2.64138e-05 W
            Runtime Dynamic = 0.0100145 W

          Instruction Decoder:
            Area = 0.928993 mm^2
            Peak Dynamic = 0.286975 W
            Subthreshold Leakage = 0.178009 W
            Subthreshold Leakage with power gating = 0.080104 W
            Gate Leakage = 0.0185411 W
            Runtime Dynamic = 0.100469 W

      Renaming Unit:
        Area = 0.241898 mm^2
        Peak Dynamic = 1.48759 W
        Subthreshold Leakage = 0.0231106 W
        Subthreshold Leakage with power gating = 0.0126861 W
        Gate Leakage = 0.00568019 W
        Runtime Dynamic = 0.112807 W

          Int Front End RAT:
            Area = 0.0412007 mm^2
            Peak Dynamic = 0.079976 W
            Subthreshold Leakage = 0.00137358 W
            Subthreshold Leakage with power gating = 0.000782942 W
            Gate Leakage = 0.000185798 W
            Runtime Dynamic = 0.0238292 W

          FP Front End RAT:
            Area = 0.168486 mm^2
            Peak Dynamic = 1.33648 W
            Subthreshold Leakage = 0.0175733 W
            Subthreshold Leakage with power gating = 0.0100168 W
            Gate Leakage = 0.00408109 W
            Runtime Dynamic = 0.0854224 W

          Free List:
            Area = 0.00946771 mm^2
            Peak Dynamic = 0.00429354 W
            Subthreshold Leakage = 0.000113339 W
            Subthreshold Leakage with power gating = 6.37662e-05 W
            Gate Leakage = 1.92322e-05 W
            Runtime Dynamic = 0.00355514 W

      Load Store Unit:
        Area = 7.63089 mm^2
        Peak Dynamic = 1.57301 W
        Subthreshold Leakage = 0.216468 W
        Subthreshold Leakage with power gating = 0.112592 W
        Gate Leakage = 0.0271839 W
        Runtime Dynamic = 0.61622 W

          Data Cache:
            Area = 5.88959 mm^2
            Peak Dynamic = 1.44998 W
            Subthreshold Leakage = 0.194743 W
            Subthreshold Leakage with power gating = 0.100694 W
            Gate Leakage = 0.0225409 W
            Runtime Dynamic = 0.438202 W

          LoadQ:
            Area = 0.083675 mm^2
            Peak Dynamic = 0.0300173 W
            Subthreshold Leakage = 0.00378553 W
            Subthreshold Leakage with power gating = 0.00215775 W
            Gate Leakage = 0.000499133 W
            Runtime Dynamic = 0.0300173 W

          StoreQ:
            Area = 0.322068 mm^2
            Peak Dynamic = 0.0740004 W
            Subthreshold Leakage = 0.0138897 W
            Subthreshold Leakage with power gating = 0.00791712 W
            Gate Leakage = 0.00274976 W
            Runtime Dynamic = 0.148001 W

      Memory Management Unit:
        Area = 0.412258 mm^2
        Peak Dynamic = 0.187806 W
        Subthreshold Leakage = 0.0269355 W
        Subthreshold Leakage with power gating = 0.0148672 W
        Gate Leakage = 0.00541234 W
        Runtime Dynamic = 0.0260323 W

          Itlb:
            Area = 0.301544 mm^2
            Peak Dynamic = 0.118969 W
            Subthreshold Leakage = 0.016628 W
            Subthreshold Leakage with power gating = 0.00947795 W
            Gate Leakage = 0.00327886 W
            Runtime Dynamic = 0 W

          Dtlb:
            Area = 0.087971 mm^2
            Peak Dynamic = 0.0259075 W
            Subthreshold Leakage = 0.0062572 W
            Subthreshold Leakage with power gating = 0.0035666 W
            Gate Leakage = 0.000739408 W
            Runtime Dynamic = 0.0260323 W

      Execution Unit:
        Area = 6.15969 mm^2
        Peak Dynamic = 1.27074 W
        Subthreshold Leakage = 0.610815 W
        Subthreshold Leakage with power gating = 0.276988 W
        Gate Leakage = 0.0843041 W
        Runtime Dynamic = 1.03346 W

          Register Files:
            Area = 0.189451 mm^2
            Peak Dynamic = 0.0256482 W
            Subthreshold Leakage = 0.00161932 W
            Subthreshold Leakage with power gating = 0.000808503 W
            Gate Leakage = 0.00019683 W
            Runtime Dynamic = 0.020996 W

              Integer RF:
                Area = 0.116356 mm^2
                Peak Dynamic = 0.0173552 W
                Subthreshold Leakage = 0.000888822 W
                Subthreshold Leakage with power gating = 0.000427225 W
                Gate Leakage = 0.000113547 W
                Runtime Dynamic = 0.0182922 W

              Floating Point RF:
                Area = 0.0730949 mm^2
                Peak Dynamic = 0.008293 W
                Subthreshold Leakage = 0.000730494 W
                Subthreshold Leakage with power gating = 0.000381278 W
                Gate Leakage = 8.32836e-05 W
                Runtime Dynamic = 0.00270382 W

          Instruction Scheduler:
            Area = 0.788091 mm^2
            Peak Dynamic = 0.882298 W
            Subthreshold Leakage = 0.0176111 W
            Subthreshold Leakage with power gating = 0.00996617 W
            Gate Leakage = 0.00235744 W
            Runtime Dynamic = 0.281697 W

              Instruction Window:
                Area = 0.270013 mm^2
                Peak Dynamic = 0.23762 W
                Subthreshold Leakage = 0.00886749 W
                Subthreshold Leakage with power gating = 0.00504561 W
                Gate Leakage = 0.00122144 W
                Runtime Dynamic = 0.109471 W

              FP Instruction Window:
                Area = 0.316102 mm^2
                Peak Dynamic = 0.485481 W
                Subthreshold Leakage = 0.00651416 W
                Subthreshold Leakage with power gating = 0.00370421 W
                Gate Leakage = 0.000909172 W
                Runtime Dynamic = 0.111356 W

              ROB:
                Area = 0.201976 mm^2
                Peak Dynamic = 0.159197 W
                Subthreshold Leakage = 0.00222944 W
                Subthreshold Leakage with power gating = 0.00121634 W
                Gate Leakage = 0.00022683 W
                Runtime Dynamic = 0.0608697 W

          Integer ALUs (Count: 3 ):
            Area = 0.235435 mm^2
            Peak Dynamic = 0.102126 W
            Subthreshold Leakage = 0.0808216 W
            Subthreshold Leakage with power gating = 0.0363697 W
            Gate Leakage = 0.0110538 W
            Runtime Dynamic = 0.156511 W

          Floating Point Units (FPUs) (Count: 2 ):
            Area = 4.6585 mm^2
            Peak Dynamic = 0.145851 W
            Subthreshold Leakage = 0.3998 W
            Subthreshold Leakage with power gating = 0.17991 W
            Gate Leakage = 0.0546797 W
            Runtime Dynamic = 0.270565 W

          Complex ALUs (Mul/Div) (Count: 1 ):
            Area = 0.235435 mm^2
            Peak Dynamic = 0.0176926 W
            Subthreshold Leakage = 0.0808216 W
            Subthreshold Leakage with power gating = 0.0363697 W
            Gate Leakage = 0.0110538 W
            Runtime Dynamic = 0.152923 W

          Results Broadcast Bus:
            Area Overhead = 0.0300341 mm^2
            Peak Dynamic = 0.0843708 W
            Subthreshold Leakage = 0.0260916 W
            Subthreshold Leakage with power gating = 0.0117412 W
            Gate Leakage = 0.00356849 W
            Runtime Dynamic = 0.150774 W

    L2
    Area = 3.08398 mm^2
    Peak Dynamic = 0.00800458 W
    Subthreshold Leakage = 0.237347 W
    Subthreshold Leakage with power gating = 0.12756 W
    Gate Leakage = 0.0118838 W
    Runtime Dynamic = 0.00159678 W

*****************************************************************************************
      L3
      Area = 62.2194 mm^2
      Peak Dynamic = 0.00317322 W
      Subthreshold Leakage = 2.73753 W
      Subthreshold Leakage with power gating = 1.55288 W
      Gate Leakage = 0.0404867 W
      Runtime Dynamic = 0.00181116 W

*****************************************************************************************
BUSES
      Area = 0.479024 mm^2
      Peak Dynamic = 0 W
      Subthreshold Leakage = 0.0214855 W
      Subthreshold Leakage with power gating = 0.00966848 W
      Gate Leakage = 0.00427242 W
      Runtime Dynamic = 0 W

      Bus: 
        Area = 0.479024 mm^2
        Peak Dynamic = 0 W
        Subthreshold Leakage = 0.0214855 W
        Subthreshold Leakage with power gating = 0.00966848 W
        Gate Leakage = 0.00427242 W
        Runtime Dynamic = 0 W

*****************************************************************************************
