McPAT (version 1.0 of Aug, 2013) is computing the target processor...
 
Warning: ReorderBuffer array structure cannot satisfy latency constraint.

McPAT (version 1.0 of Aug, 2013) results  (current print level is 5)
*****************************************************************************************
  Technology 45 nm
  Using Long Channel Devices When Appropriate
  Interconnect metal projection= aggressive interconnect technology projection
  Core clock Rate(MHz) 2800

*****************************************************************************************
Processor: 
  Area = 176.758 mm^2
  Peak Power = 70.9997 W
  Total Leakage = 13.2733 W
  Peak Dynamic = 57.7264 W
  Subthreshold Leakage = 12.0371 W
  Subthreshold Leakage with power gating = 6.1592 W
  Gate Leakage = 1.23617 W
  Runtime Dynamic = 14.6771 W

  Total Cores: 4 cores 
  Device Type= ITRS high performance device type
    Area = 113.865 mm^2
    Peak Dynamic = 57.6899 W
    Subthreshold Leakage = 9.26937 W
    Subthreshold Leakage with power gating = 4.42314 W
    Gate Leakage = 1.18967 W
    Runtime Dynamic = 14.6542 W

  Total L3s: 
  Device Type= ITRS high performance device type
    Area = 62.2194 mm^2
    Peak Dynamic = 0.0365588 W
    Subthreshold Leakage = 2.73753 W
    Subthreshold Leakage with power gating = 1.55288 W
    Gate Leakage = 0.0404867 W
    Runtime Dynamic = 0.0228547 W

  Total NoCs (Network/Bus): 
  Device Type= ITRS high performance device type
    Area = 0.673906 mm^2
    Peak Dynamic = 0 W
    Subthreshold Leakage = 0.0302265 W
    Subthreshold Leakage with power gating = 0.0136019 W
    Gate Leakage = 0.00601057 W
    Runtime Dynamic = 0 W

*****************************************************************************************
Core:
      Area = 33.6182 mm^2
      Peak Dynamic = 40.9714 W
      Subthreshold Leakage = 2.56509 W
      Subthreshold Leakage with power gating = 1.22806 W
      Gate Leakage = 0.331709 W
      Runtime Dynamic = 10.8225 W

      Instruction Fetch Unit:
        Area = 5.79327 mm^2
        Peak Dynamic = 6.71357 W
        Subthreshold Leakage = 0.369797 W
        Subthreshold Leakage with power gating = 0.182731 W
        Gate Leakage = 0.0497222 W
        Runtime Dynamic = 0.367644 W

          Instruction Cache:
            Area = 2.93588 mm^2
            Peak Dynamic = 4.8356 W
            Subthreshold Leakage = 0.138238 W
            Subthreshold Leakage with power gating = 0.0724173 W
            Gate Leakage = 0.024379 W
            Runtime Dynamic = 0 W

          Branch Target Buffer:
            Area = 0.789969 mm^2
            Peak Dynamic = 0.14168 W
            Subthreshold Leakage = 0.0368499 W
            Subthreshold Leakage with power gating = 0.021557 W
            Gate Leakage = 0.00333823 W
            Runtime Dynamic = 0.0120012 W

          Branch Predictor:
            Area = 0.139613 mm^2
            Peak Dynamic = 0.0473203 W
            Subthreshold Leakage = 0.00802563 W
            Subthreshold Leakage with power gating = 0.00469502 W
            Gate Leakage = 0.000631381 W
            Runtime Dynamic = 0.00513518 W

              Global Predictor:
                Area = 0.0443718 mm^2
                Peak Dynamic = 0.0136577 W
                Subthreshold Leakage = 0.00305314 W
                Subthreshold Leakage with power gating = 0.00178441 W
                Gate Leakage = 0.000231968 W
                Runtime Dynamic = 0.00137097 W

              Local Predictor:
              L1_Local Predictor:
                Area = 0.0264164 mm^2
                Peak Dynamic = 0.0111299 W
                Subthreshold Leakage = 0.00154459 W
                Subthreshold Leakage with power gating = 0.000902955 W
                Gate Leakage = 0.00012879 W
                Runtime Dynamic = 0.00118714 W

              L2_Local Predictor:
                Area = 0.0135618 mm^2
                Peak Dynamic = 0.00567618 W
                Subthreshold Leakage = 0.000782464 W
                Subthreshold Leakage with power gating = 0.000456083 W
                Gate Leakage = 6.76797e-05 W
                Runtime Dynamic = 0.000605683 W

              Chooser:
                Area = 0.0443718 mm^2
                Peak Dynamic = 0.0136577 W
                Subthreshold Leakage = 0.00305314 W
                Subthreshold Leakage with power gating = 0.00178441 W
                Gate Leakage = 0.000231968 W
                Runtime Dynamic = 0.00137097 W

              RAS:
                Area = 0.0108915 mm^2
                Peak Dynamic = 0.00887513 W
                Subthreshold Leakage = 0.000374753 W
                Subthreshold Leakage with power gating = 0.000223242 W
                Gate Leakage = 3.86548e-05 W
                Runtime Dynamic = 0.0012061 W

          Instruction Buffer:
            Area = 0.0245435 mm^2
            Peak Dynamic = 0.451666 W
            Subthreshold Leakage = 0.00061039 W
            Subthreshold Leakage with power gating = 0.000328759 W
            Gate Leakage = 5.69632e-05 W
            Runtime Dynamic = 0.0808424 W

          Instruction Decoder:
            Area = 1.85799 mm^2
            Peak Dynamic = 1.00441 W
            Subthreshold Leakage = 0.178009 W
            Subthreshold Leakage with power gating = 0.080104 W
            Gate Leakage = 0.0185411 W
            Runtime Dynamic = 0.269665 W

      Renaming Unit:
        Area = 0.393146 mm^2
        Peak Dynamic = 3.40509 W
        Subthreshold Leakage = 0.0286873 W
        Subthreshold Leakage with power gating = 0.015396 W
        Gate Leakage = 0.00723822 W
        Runtime Dynamic = 0.451095 W

          Int Front End RAT:
            Area = 0.11475 mm^2
            Peak Dynamic = 0.646375 W
            Subthreshold Leakage = 0.00245908 W
            Subthreshold Leakage with power gating = 0.00140167 W
            Gate Leakage = 0.000319525 W
            Runtime Dynamic = 0.160472 W

          FP Front End RAT:
            Area = 0.168486 mm^2
            Peak Dynamic = 2.47986 W
            Subthreshold Leakage = 0.0175733 W
            Subthreshold Leakage with power gating = 0.0100168 W
            Gate Leakage = 0.00408109 W
            Runtime Dynamic = 0.261098 W

          Free List:
            Area = 0.0646288 mm^2
            Peak Dynamic = 0.0459711 W
            Subthreshold Leakage = 0.000590885 W
            Subthreshold Leakage with power gating = 0.000348707 W
            Gate Leakage = 6.20754e-05 W
            Runtime Dynamic = 0.0295248 W

      Load Store Unit:
        Area = 7.65343 mm^2
        Peak Dynamic = 2.54823 W
        Subthreshold Leakage = 0.220482 W
        Subthreshold Leakage with power gating = 0.114398 W
        Gate Leakage = 0.0285653 W
        Runtime Dynamic = 0.94989 W

          Data Cache:
            Area = 5.88959 mm^2
            Peak Dynamic = 2.33161 W
            Subthreshold Leakage = 0.194743 W
            Subthreshold Leakage with power gating = 0.100694 W
            Gate Leakage = 0.0225409 W
            Runtime Dynamic = 0.678099 W

          LoadQ:
            Area = 0.083675 mm^2
            Peak Dynamic = 0.0458293 W
            Subthreshold Leakage = 0.00378553 W
            Subthreshold Leakage with power gating = 0.00215775 W
            Gate Leakage = 0.000499133 W
            Runtime Dynamic = 0.0458293 W

          StoreQ:
            Area = 0.322068 mm^2
            Peak Dynamic = 0.112981 W
            Subthreshold Leakage = 0.0138897 W
            Subthreshold Leakage with power gating = 0.00791712 W
            Gate Leakage = 0.00274976 W
            Runtime Dynamic = 0.225962 W

      Memory Management Unit:
        Area = 0.434796 mm^2
        Peak Dynamic = 0.482243 W
        Subthreshold Leakage = 0.0309492 W
        Subthreshold Leakage with power gating = 0.0166734 W
        Gate Leakage = 0.0067938 W
        Runtime Dynamic = 0.0398827 W

          Itlb:
            Area = 0.301544 mm^2
            Peak Dynamic = 0.297342 W
            Subthreshold Leakage = 0.016628 W
            Subthreshold Leakage with power gating = 0.00947795 W
            Gate Leakage = 0.00327886 W
            Runtime Dynamic = 0 W

          Dtlb:
            Area = 0.087971 mm^2
            Peak Dynamic = 0.0395547 W
            Subthreshold Leakage = 0.0062572 W
            Subthreshold Leakage with power gating = 0.0035666 W
            Gate Leakage = 0.000739408 W
            Runtime Dynamic = 0.0398827 W

      Execution Unit:
        Area = 10.5419 mm^2
        Peak Dynamic = 27.7992 W
        Subthreshold Leakage = 0.826422 W
        Subthreshold Leakage with power gating = 0.378115 W
        Gate Leakage = 0.123251 W
        Runtime Dynamic = 9.00601 W

          Register Files:
            Area = 0.583006 mm^2
            Peak Dynamic = 0.17819 W
            Subthreshold Leakage = 0.00407453 W
            Subthreshold Leakage with power gating = 0.00196113 W
            Gate Leakage = 0.000518923 W
            Runtime Dynamic = 0.0957051 W

              Integer RF:
                Area = 0.362766 mm^2
                Peak Dynamic = 0.103024 W
                Subthreshold Leakage = 0.00246823 W
                Subthreshold Leakage with power gating = 0.00115516 W
                Gate Leakage = 0.000324933 W
                Runtime Dynamic = 0.0842961 W

              Floating Point RF:
                Area = 0.22024 mm^2
                Peak Dynamic = 0.0751658 W
                Subthreshold Leakage = 0.0016063 W
                Subthreshold Leakage with power gating = 0.00080597 W
                Gate Leakage = 0.00019399 W
                Runtime Dynamic = 0.011409 W

          Instruction Scheduler:
            Area = 4.49921 mm^2
            Peak Dynamic = 26.5944 W
            Subthreshold Leakage = 0.130589 W
            Subthreshold Leakage with power gating = 0.0648622 W
            Gate Leakage = 0.0264491 W
            Runtime Dynamic = 7.34143 W

              Instruction Window:
                Area = 1.00992 mm^2
                Peak Dynamic = 1.54952 W
                Subthreshold Leakage = 0.0321549 W
                Subthreshold Leakage with power gating = 0.0183106 W
                Gate Leakage = 0.00440927 W
                Runtime Dynamic = 0.544002 W

              FP Instruction Window:
                Area = 0.328065 mm^2
                Peak Dynamic = 0.902386 W
                Subthreshold Leakage = 0.00683352 W
                Subthreshold Leakage with power gating = 0.0038774 W
                Gate Leakage = 0.000961245 W
                Runtime Dynamic = 0.31444 W

              ROB:
                Area = 3.16123 mm^2
                Peak Dynamic = 24.1425 W
                Subthreshold Leakage = 0.0916003 W
                Subthreshold Leakage with power gating = 0.0426742 W
                Gate Leakage = 0.0210786 W
                Runtime Dynamic = 6.48299 W

          Integer ALUs (Count: 6 ):
            Area = 0.47087 mm^2
            Peak Dynamic = 0.244266 W
            Subthreshold Leakage = 0.161643 W
            Subthreshold Leakage with power gating = 0.0727395 W
            Gate Leakage = 0.0221076 W
            Runtime Dynamic = 0.281598 W

          Floating Point Units (FPUs) (Count: 2 ):
            Area = 4.6585 mm^2
            Peak Dynamic = 0.387106 W
            Subthreshold Leakage = 0.3998 W
            Subthreshold Leakage with power gating = 0.17991 W
            Gate Leakage = 0.0546797 W
            Runtime Dynamic = 0.382457 W

          Complex ALUs (Mul/Div) (Count: 1 ):
            Area = 0.235435 mm^2
            Peak Dynamic = 0.0599926 W
            Subthreshold Leakage = 0.0808216 W
            Subthreshold Leakage with power gating = 0.0363697 W
            Gate Leakage = 0.0110538 W
            Runtime Dynamic = 0.188388 W

          Results Broadcast Bus:
            Area Overhead = 0.0496447 mm^2
            Peak Dynamic = 0.30172 W
            Subthreshold Leakage = 0.0414305 W
            Subthreshold Leakage with power gating = 0.0186437 W
            Gate Leakage = 0.00566636 W
            Runtime Dynamic = 0.716432 W

    L2
    Area = 4.40487 mm^2
    Peak Dynamic = 0.0230346 W
    Subthreshold Leakage = 0.334089 W
    Subthreshold Leakage with power gating = 0.181146 W
    Gate Leakage = 0.0129247 W
    Runtime Dynamic = 0.00283935 W

*****************************************************************************************
Core:
      Area = 26.7488 mm^2
      Peak Dynamic = 5.58994 W
      Subthreshold Leakage = 2.23476 W
      Subthreshold Leakage with power gating = 1.06503 W
      Gate Leakage = 0.285988 W
      Runtime Dynamic = 1.28306 W

      Instruction Fetch Unit:
        Area = 4.82339 mm^2
        Peak Dynamic = 1.83804 W
        Subthreshold Leakage = 0.365421 W
        Subthreshold Leakage with power gating = 0.180734 W
        Gate Leakage = 0.0483102 W
        Runtime Dynamic = 0.0826151 W

          Instruction Cache:
            Area = 2.93588 mm^2
            Peak Dynamic = 1.36708 W
            Subthreshold Leakage = 0.138238 W
            Subthreshold Leakage with power gating = 0.0724173 W
            Gate Leakage = 0.024379 W
            Runtime Dynamic = 0 W

          Branch Target Buffer:
            Area = 0.789969 mm^2
            Peak Dynamic = 0.0809601 W
            Subthreshold Leakage = 0.0368499 W
            Subthreshold Leakage with power gating = 0.021557 W
            Gate Leakage = 0.00333823 W
            Runtime Dynamic = 0.00318911 W

          Branch Predictor:
            Area = 0.139613 mm^2
            Peak Dynamic = 0.0270402 W
            Subthreshold Leakage = 0.00802563 W
            Subthreshold Leakage with power gating = 0.00469502 W
            Gate Leakage = 0.000631381 W
            Runtime Dynamic = 0.0013598 W

              Global Predictor:
                Area = 0.0443718 mm^2
                Peak Dynamic = 0.00780437 W
                Subthreshold Leakage = 0.00305314 W
                Subthreshold Leakage with power gating = 0.00178441 W
                Gate Leakage = 0.000231968 W
                Runtime Dynamic = 0.000363739 W

              Local Predictor:
              L1_Local Predictor:
                Area = 0.0264164 mm^2
                Peak Dynamic = 0.00635992 W
                Subthreshold Leakage = 0.00154459 W
                Subthreshold Leakage with power gating = 0.000902955 W
                Gate Leakage = 0.00012879 W
                Runtime Dynamic = 0.00031481 W

              L2_Local Predictor:
                Area = 0.0135618 mm^2
                Peak Dynamic = 0.00324353 W
                Subthreshold Leakage = 0.000782464 W
                Subthreshold Leakage with power gating = 0.000456083 W
                Gate Leakage = 6.76797e-05 W
                Runtime Dynamic = 0.000160616 W

              Chooser:
                Area = 0.0443718 mm^2
                Peak Dynamic = 0.00780437 W
                Subthreshold Leakage = 0.00305314 W
                Subthreshold Leakage with power gating = 0.00178441 W
                Gate Leakage = 0.000231968 W
                Runtime Dynamic = 0.000363739 W

              RAS:
                Area = 0.0108915 mm^2
                Peak Dynamic = 0.0050715 W
                Subthreshold Leakage = 0.000374753 W
                Subthreshold Leakage with power gating = 0.000223242 W
                Gate Leakage = 3.86548e-05 W
                Runtime Dynamic = 0.000317509 W

          Instruction Buffer:
            Area = 0.00619634 mm^2
            Peak Dynamic = 0.0429076 W
            Subthreshold Leakage = 0.000247453 W
            Subthreshold Leakage with power gating = 0.000138425 W
            Gate Leakage = 2.64138e-05 W
            Runtime Dynamic = 0.00707613 W

          Instruction Decoder:
            Area = 0.928993 mm^2
            Peak Dynamic = 0.286975 W
            Subthreshold Leakage = 0.178009 W
            Subthreshold Leakage with power gating = 0.080104 W
            Gate Leakage = 0.0185411 W
            Runtime Dynamic = 0.07099 W

      Renaming Unit:
        Area = 0.241898 mm^2
        Peak Dynamic = 1.48759 W
        Subthreshold Leakage = 0.0231106 W
        Subthreshold Leakage with power gating = 0.0126861 W
        Gate Leakage = 0.00568019 W
        Runtime Dynamic = 0.0833674 W

          Int Front End RAT:
            Area = 0.0412007 mm^2
            Peak Dynamic = 0.079976 W
            Subthreshold Leakage = 0.00137358 W
            Subthreshold Leakage with power gating = 0.000782942 W
            Gate Leakage = 0.000185798 W
            Runtime Dynamic = 0.0170937 W

          FP Front End RAT:
            Area = 0.168486 mm^2
            Peak Dynamic = 1.33648 W
            Subthreshold Leakage = 0.0175733 W
            Subthreshold Leakage with power gating = 0.0100168 W
            Gate Leakage = 0.00408109 W
            Runtime Dynamic = 0.0637399 W

          Free List:
            Area = 0.00946771 mm^2
            Peak Dynamic = 0.00429354 W
            Subthreshold Leakage = 0.000113339 W
            Subthreshold Leakage with power gating = 6.37662e-05 W
            Gate Leakage = 1.92322e-05 W
            Runtime Dynamic = 0.00253375 W

      Load Store Unit:
        Area = 7.63089 mm^2
        Peak Dynamic = 0.953883 W
        Subthreshold Leakage = 0.216468 W
        Subthreshold Leakage with power gating = 0.112592 W
        Gate Leakage = 0.0271839 W
        Runtime Dynamic = 0.254369 W

          Data Cache:
            Area = 5.88959 mm^2
            Peak Dynamic = 0.90373 W
            Subthreshold Leakage = 0.194743 W
            Subthreshold Leakage with power gating = 0.100694 W
            Gate Leakage = 0.0225409 W
            Runtime Dynamic = 0.181803 W

          LoadQ:
            Area = 0.083675 mm^2
            Peak Dynamic = 0.0122359 W
            Subthreshold Leakage = 0.00378553 W
            Subthreshold Leakage with power gating = 0.00215775 W
            Gate Leakage = 0.000499133 W
            Runtime Dynamic = 0.0122359 W

          StoreQ:
            Area = 0.322068 mm^2
            Peak Dynamic = 0.0301646 W
            Subthreshold Leakage = 0.0138897 W
            Subthreshold Leakage with power gating = 0.00791712 W
            Gate Leakage = 0.00274976 W
            Runtime Dynamic = 0.0603294 W

      Memory Management Unit:
        Area = 0.412258 mm^2
        Peak Dynamic = 0.13192 W
        Subthreshold Leakage = 0.0269355 W
        Subthreshold Leakage with power gating = 0.0148672 W
        Gate Leakage = 0.00541234 W
        Runtime Dynamic = 0.0106591 W

          Itlb:
            Area = 0.301544 mm^2
            Peak Dynamic = 0.0840622 W
            Subthreshold Leakage = 0.016628 W
            Subthreshold Leakage with power gating = 0.00947795 W
            Gate Leakage = 0.00327886 W
            Runtime Dynamic = 0 W

          Dtlb:
            Area = 0.087971 mm^2
            Peak Dynamic = 0.0105606 W
            Subthreshold Leakage = 0.0062572 W
            Subthreshold Leakage with power gating = 0.0035666 W
            Gate Leakage = 0.000739408 W
            Runtime Dynamic = 0.0106591 W

      Execution Unit:
        Area = 6.15969 mm^2
        Peak Dynamic = 1.17219 W
        Subthreshold Leakage = 0.610815 W
        Subthreshold Leakage with power gating = 0.276988 W
        Gate Leakage = 0.0843041 W
        Runtime Dynamic = 0.849797 W

          Register Files:
            Area = 0.189451 mm^2
            Peak Dynamic = 0.0191511 W
            Subthreshold Leakage = 0.00161932 W
            Subthreshold Leakage with power gating = 0.000808503 W
            Gate Leakage = 0.00019683 W
            Runtime Dynamic = 0.0148356 W

              Integer RF:
                Area = 0.116356 mm^2
                Peak Dynamic = 0.0129631 W
                Subthreshold Leakage = 0.000888822 W
                Subthreshold Leakage with power gating = 0.000427225 W
                Gate Leakage = 0.000113547 W
                Runtime Dynamic = 0.0129251 W

              Floating Point RF:
                Area = 0.0730949 mm^2
                Peak Dynamic = 0.00618803 W
                Subthreshold Leakage = 0.000730494 W
                Subthreshold Leakage with power gating = 0.000381278 W
                Gate Leakage = 8.32836e-05 W
                Runtime Dynamic = 0.00191049 W

          Instruction Scheduler:
            Area = 0.788091 mm^2
            Peak Dynamic = 0.882298 W
            Subthreshold Leakage = 0.0176111 W
            Subthreshold Leakage with power gating = 0.00996617 W
            Gate Leakage = 0.00235744 W
            Runtime Dynamic = 0.195422 W

              Instruction Window:
                Area = 0.270013 mm^2
                Peak Dynamic = 0.23762 W
                Subthreshold Leakage = 0.00886749 W
                Subthreshold Leakage with power gating = 0.00504561 W
                Gate Leakage = 0.00122144 W
                Runtime Dynamic = 0.077351 W

              FP Instruction Window:
                Area = 0.316102 mm^2
                Peak Dynamic = 0.485481 W
                Subthreshold Leakage = 0.00651416 W
                Subthreshold Leakage with power gating = 0.00370421 W
                Gate Leakage = 0.000909172 W
                Runtime Dynamic = 0.0786831 W

              ROB:
                Area = 0.201976 mm^2
                Peak Dynamic = 0.159197 W
                Subthreshold Leakage = 0.00222944 W
                Subthreshold Leakage with power gating = 0.00121634 W
                Gate Leakage = 0.00022683 W
                Runtime Dynamic = 0.0393877 W

          Integer ALUs (Count: 3 ):
            Area = 0.235435 mm^2
            Peak Dynamic = 0.0712585 W
            Subthreshold Leakage = 0.0808216 W
            Subthreshold Leakage with power gating = 0.0363697 W
            Gate Leakage = 0.0110538 W
            Runtime Dynamic = 0.126176 W

          Floating Point Units (FPUs) (Count: 2 ):
            Area = 4.6585 mm^2
            Peak Dynamic = 0.10883 W
            Subthreshold Leakage = 0.3998 W
            Subthreshold Leakage with power gating = 0.17991 W
            Gate Leakage = 0.0546797 W
            Runtime Dynamic = 0.255479 W

          Complex ALUs (Mul/Div) (Count: 1 ):
            Area = 0.235435 mm^2
            Peak Dynamic = 0.0178666 W
            Subthreshold Leakage = 0.0808216 W
            Subthreshold Leakage with power gating = 0.0363697 W
            Gate Leakage = 0.0110538 W
            Runtime Dynamic = 0.153043 W

          Results Broadcast Bus:
            Area Overhead = 0.0300341 mm^2
            Peak Dynamic = 0.0638913 W
            Subthreshold Leakage = 0.0260916 W
            Subthreshold Leakage with power gating = 0.0117412 W
            Gate Leakage = 0.00356849 W
            Runtime Dynamic = 0.104842 W

    L2
    Area = 3.08398 mm^2
    Peak Dynamic = 0.00631516 W
    Subthreshold Leakage = 0.237347 W
    Subthreshold Leakage with power gating = 0.12756 W
    Gate Leakage = 0.0118838 W
    Runtime Dynamic = 0.00140899 W

*****************************************************************************************
Core:
      Area = 26.7488 mm^2
      Peak Dynamic = 5.54344 W
      Subthreshold Leakage = 2.23476 W
      Subthreshold Leakage with power gating = 1.06503 W
      Gate Leakage = 0.285988 W
      Runtime Dynamic = 1.26597 W

      Instruction Fetch Unit:
        Area = 4.82339 mm^2
        Peak Dynamic = 1.8052 W
        Subthreshold Leakage = 0.365421 W
        Subthreshold Leakage with power gating = 0.180734 W
        Gate Leakage = 0.0483102 W
        Runtime Dynamic = 0.0807043 W

          Instruction Cache:
            Area = 2.93588 mm^2
            Peak Dynamic = 1.33503 W
            Subthreshold Leakage = 0.138238 W
            Subthreshold Leakage with power gating = 0.0724173 W
            Gate Leakage = 0.024379 W
            Runtime Dynamic = 0 W

          Branch Target Buffer:
            Area = 0.789969 mm^2
            Peak Dynamic = 0.0809601 W
            Subthreshold Leakage = 0.0368499 W
            Subthreshold Leakage with power gating = 0.021557 W
            Gate Leakage = 0.00333823 W
            Runtime Dynamic = 0.00313578 W

          Branch Predictor:
            Area = 0.139613 mm^2
            Peak Dynamic = 0.0270402 W
            Subthreshold Leakage = 0.00802563 W
            Subthreshold Leakage with power gating = 0.00469502 W
            Gate Leakage = 0.000631381 W
            Runtime Dynamic = 0.00133292 W

              Global Predictor:
                Area = 0.0443718 mm^2
                Peak Dynamic = 0.00780437 W
                Subthreshold Leakage = 0.00305314 W
                Subthreshold Leakage with power gating = 0.00178441 W
                Gate Leakage = 0.000231968 W
                Runtime Dynamic = 0.000357021 W

              Local Predictor:
              L1_Local Predictor:
                Area = 0.0264164 mm^2
                Peak Dynamic = 0.00635992 W
                Subthreshold Leakage = 0.00154459 W
                Subthreshold Leakage with power gating = 0.000902955 W
                Gate Leakage = 0.00012879 W
                Runtime Dynamic = 0.000308819 W

              L2_Local Predictor:
                Area = 0.0135618 mm^2
                Peak Dynamic = 0.00324353 W
                Subthreshold Leakage = 0.000782464 W
                Subthreshold Leakage with power gating = 0.000456083 W
                Gate Leakage = 6.76797e-05 W
                Runtime Dynamic = 0.000157559 W

              Chooser:
                Area = 0.0443718 mm^2
                Peak Dynamic = 0.00780437 W
                Subthreshold Leakage = 0.00305314 W
                Subthreshold Leakage with power gating = 0.00178441 W
                Gate Leakage = 0.000231968 W
                Runtime Dynamic = 0.000357021 W

              RAS:
                Area = 0.0108915 mm^2
                Peak Dynamic = 0.0050715 W
                Subthreshold Leakage = 0.000374753 W
                Subthreshold Leakage with power gating = 0.000223242 W
                Gate Leakage = 3.86548e-05 W
                Runtime Dynamic = 0.000310064 W

          Instruction Buffer:
            Area = 0.00619634 mm^2
            Peak Dynamic = 0.0429076 W
            Subthreshold Leakage = 0.000247453 W
            Subthreshold Leakage with power gating = 0.000138425 W
            Gate Leakage = 2.64138e-05 W
            Runtime Dynamic = 0.0069102 W

          Instruction Decoder:
            Area = 0.928993 mm^2
            Peak Dynamic = 0.286975 W
            Subthreshold Leakage = 0.178009 W
            Subthreshold Leakage with power gating = 0.080104 W
            Gate Leakage = 0.0185411 W
            Runtime Dynamic = 0.0693254 W

      Renaming Unit:
        Area = 0.241898 mm^2
        Peak Dynamic = 1.48759 W
        Subthreshold Leakage = 0.0231106 W
        Subthreshold Leakage with power gating = 0.0126861 W
        Gate Leakage = 0.00568019 W
        Runtime Dynamic = 0.0806624 W

          Int Front End RAT:
            Area = 0.0412007 mm^2
            Peak Dynamic = 0.079976 W
            Subthreshold Leakage = 0.00137358 W
            Subthreshold Leakage with power gating = 0.000782942 W
            Gate Leakage = 0.000185798 W
            Runtime Dynamic = 0.0167104 W

          FP Front End RAT:
            Area = 0.168486 mm^2
            Peak Dynamic = 1.33648 W
            Subthreshold Leakage = 0.0175733 W
            Subthreshold Leakage with power gating = 0.0100168 W
            Gate Leakage = 0.00408109 W
            Runtime Dynamic = 0.0614826 W

          Free List:
            Area = 0.00946771 mm^2
            Peak Dynamic = 0.00429354 W
            Subthreshold Leakage = 0.000113339 W
            Subthreshold Leakage with power gating = 6.37662e-05 W
            Gate Leakage = 1.92322e-05 W
            Runtime Dynamic = 0.00246944 W

      Load Store Unit:
        Area = 7.63089 mm^2
        Peak Dynamic = 0.949978 W
        Subthreshold Leakage = 0.216468 W
        Subthreshold Leakage with power gating = 0.112592 W
        Gate Leakage = 0.0271839 W
        Runtime Dynamic = 0.252577 W

          Data Cache:
            Area = 5.88959 mm^2
            Peak Dynamic = 0.900285 W
            Subthreshold Leakage = 0.194743 W
            Subthreshold Leakage with power gating = 0.100694 W
            Gate Leakage = 0.0225409 W
            Runtime Dynamic = 0.180677 W

          LoadQ:
            Area = 0.083675 mm^2
            Peak Dynamic = 0.0121237 W
            Subthreshold Leakage = 0.00378553 W
            Subthreshold Leakage with power gating = 0.00215775 W
            Gate Leakage = 0.000499133 W
            Runtime Dynamic = 0.0121237 W

          StoreQ:
            Area = 0.322068 mm^2
            Peak Dynamic = 0.0298881 W
            Subthreshold Leakage = 0.0138897 W
            Subthreshold Leakage with power gating = 0.00791712 W
            Gate Leakage = 0.00274976 W
            Runtime Dynamic = 0.059776 W

      Memory Management Unit:
        Area = 0.412258 mm^2
        Peak Dynamic = 0.129816 W
        Subthreshold Leakage = 0.0269355 W
        Subthreshold Leakage with power gating = 0.0148672 W
        Gate Leakage = 0.00541234 W
        Runtime Dynamic = 0.0105709 W

          Itlb:
            Area = 0.301544 mm^2
            Peak Dynamic = 0.0820909 W
            Subthreshold Leakage = 0.016628 W
            Subthreshold Leakage with power gating = 0.00947795 W
            Gate Leakage = 0.00327886 W
            Runtime Dynamic = 0 W

          Dtlb:
            Area = 0.087971 mm^2
            Peak Dynamic = 0.0104638 W
            Subthreshold Leakage = 0.0062572 W
            Subthreshold Leakage with power gating = 0.0035666 W
            Gate Leakage = 0.000739408 W
            Runtime Dynamic = 0.0105709 W

      Execution Unit:
        Area = 6.15969 mm^2
        Peak Dynamic = 1.16398 W
        Subthreshold Leakage = 0.610815 W
        Subthreshold Leakage with power gating = 0.276988 W
        Gate Leakage = 0.0843041 W
        Runtime Dynamic = 0.83891 W

          Register Files:
            Area = 0.189451 mm^2
            Peak Dynamic = 0.0186249 W
            Subthreshold Leakage = 0.00161932 W
            Subthreshold Leakage with power gating = 0.000808503 W
            Gate Leakage = 0.00019683 W
            Runtime Dynamic = 0.0144877 W

              Integer RF:
                Area = 0.116356 mm^2
                Peak Dynamic = 0.012656 W
                Subthreshold Leakage = 0.000888822 W
                Subthreshold Leakage with power gating = 0.000427225 W
                Gate Leakage = 0.000113547 W
                Runtime Dynamic = 0.012622 W

              Floating Point RF:
                Area = 0.0730949 mm^2
                Peak Dynamic = 0.00596888 W
                Subthreshold Leakage = 0.000730494 W
                Subthreshold Leakage with power gating = 0.000381278 W
                Gate Leakage = 8.32836e-05 W
                Runtime Dynamic = 0.00186569 W

          Instruction Scheduler:
            Area = 0.788091 mm^2
            Peak Dynamic = 0.882298 W
            Subthreshold Leakage = 0.0176111 W
            Subthreshold Leakage with power gating = 0.00996617 W
            Gate Leakage = 0.00235744 W
            Runtime Dynamic = 0.190839 W

              Instruction Window:
                Area = 0.270013 mm^2
                Peak Dynamic = 0.23762 W
                Subthreshold Leakage = 0.00886749 W
                Subthreshold Leakage with power gating = 0.00504561 W
                Gate Leakage = 0.00122144 W
                Runtime Dynamic = 0.0755371 W

              FP Instruction Window:
                Area = 0.316102 mm^2
                Peak Dynamic = 0.485481 W
                Subthreshold Leakage = 0.00651416 W
                Subthreshold Leakage with power gating = 0.00370421 W
                Gate Leakage = 0.000909172 W
                Runtime Dynamic = 0.0768381 W

              ROB:
                Area = 0.201976 mm^2
                Peak Dynamic = 0.159197 W
                Subthreshold Leakage = 0.00222944 W
                Subthreshold Leakage with power gating = 0.00121634 W
                Gate Leakage = 0.00022683 W
                Runtime Dynamic = 0.0384642 W

          Integer ALUs (Count: 3 ):
            Area = 0.235435 mm^2
            Peak Dynamic = 0.0697912 W
            Subthreshold Leakage = 0.0808216 W
            Subthreshold Leakage with power gating = 0.0363697 W
            Gate Leakage = 0.0110538 W
            Runtime Dynamic = 0.125004 W

          Floating Point Units (FPUs) (Count: 2 ):
            Area = 4.6585 mm^2
            Peak Dynamic = 0.104976 W
            Subthreshold Leakage = 0.3998 W
            Subthreshold Leakage with power gating = 0.17991 W
            Gate Leakage = 0.0546797 W
            Runtime Dynamic = 0.253909 W

          Complex ALUs (Mul/Div) (Count: 1 ):
            Area = 0.235435 mm^2
            Peak Dynamic = 0.0172387 W
            Subthreshold Leakage = 0.0808216 W
            Subthreshold Leakage with power gating = 0.0363697 W
            Gate Leakage = 0.0110538 W
            Runtime Dynamic = 0.152611 W

          Results Broadcast Bus:
            Area Overhead = 0.0300341 mm^2
            Peak Dynamic = 0.0623394 W
            Subthreshold Leakage = 0.0260916 W
            Subthreshold Leakage with power gating = 0.0117412 W
            Gate Leakage = 0.00356849 W
            Runtime Dynamic = 0.102059 W

    L2
    Area = 3.08398 mm^2
    Peak Dynamic = 0.00686934 W
    Subthreshold Leakage = 0.237347 W
    Subthreshold Leakage with power gating = 0.12756 W
    Gate Leakage = 0.0118838 W
    Runtime Dynamic = 0.00159207 W

*****************************************************************************************
Core:
      Area = 26.7488 mm^2
      Peak Dynamic = 5.58511 W
      Subthreshold Leakage = 2.23476 W
      Subthreshold Leakage with power gating = 1.06503 W
      Gate Leakage = 0.285988 W
      Runtime Dynamic = 1.28271 W

      Instruction Fetch Unit:
        Area = 4.82339 mm^2
        Peak Dynamic = 1.8321 W
        Subthreshold Leakage = 0.365421 W
        Subthreshold Leakage with power gating = 0.180734 W
        Gate Leakage = 0.0483102 W
        Runtime Dynamic = 0.0822407 W

          Instruction Cache:
            Area = 2.93588 mm^2
            Peak Dynamic = 1.36129 W
            Subthreshold Leakage = 0.138238 W
            Subthreshold Leakage with power gating = 0.0724173 W
            Gate Leakage = 0.024379 W
            Runtime Dynamic = 0 W

          Branch Target Buffer:
            Area = 0.789969 mm^2
            Peak Dynamic = 0.0809601 W
            Subthreshold Leakage = 0.0368499 W
            Subthreshold Leakage with power gating = 0.021557 W
            Gate Leakage = 0.00333823 W
            Runtime Dynamic = 0.00315786 W

          Branch Predictor:
            Area = 0.139613 mm^2
            Peak Dynamic = 0.0270402 W
            Subthreshold Leakage = 0.00802563 W
            Subthreshold Leakage with power gating = 0.00469502 W
            Gate Leakage = 0.000631381 W
            Runtime Dynamic = 0.0013475 W

              Global Predictor:
                Area = 0.0443718 mm^2
                Peak Dynamic = 0.00780437 W
                Subthreshold Leakage = 0.00305314 W
                Subthreshold Leakage with power gating = 0.00178441 W
                Gate Leakage = 0.000231968 W
                Runtime Dynamic = 0.00035994 W

              Local Predictor:
              L1_Local Predictor:
                Area = 0.0264164 mm^2
                Peak Dynamic = 0.00635992 W
                Subthreshold Leakage = 0.00154459 W
                Subthreshold Leakage with power gating = 0.000902955 W
                Gate Leakage = 0.00012879 W
                Runtime Dynamic = 0.000311457 W

              L2_Local Predictor:
                Area = 0.0135618 mm^2
                Peak Dynamic = 0.00324353 W
                Subthreshold Leakage = 0.000782464 W
                Subthreshold Leakage with power gating = 0.000456083 W
                Gate Leakage = 6.76797e-05 W
                Runtime Dynamic = 0.000158905 W

              Chooser:
                Area = 0.0443718 mm^2
                Peak Dynamic = 0.00780437 W
                Subthreshold Leakage = 0.00305314 W
                Subthreshold Leakage with power gating = 0.00178441 W
                Gate Leakage = 0.000231968 W
                Runtime Dynamic = 0.00035994 W

              RAS:
                Area = 0.0108915 mm^2
                Peak Dynamic = 0.0050715 W
                Subthreshold Leakage = 0.000374753 W
                Subthreshold Leakage with power gating = 0.000223242 W
                Gate Leakage = 3.86548e-05 W
                Runtime Dynamic = 0.000316164 W

          Instruction Buffer:
            Area = 0.00619634 mm^2
            Peak Dynamic = 0.0429076 W
            Subthreshold Leakage = 0.000247453 W
            Subthreshold Leakage with power gating = 0.000138425 W
            Gate Leakage = 2.64138e-05 W
            Runtime Dynamic = 0.00704615 W

          Instruction Decoder:
            Area = 0.928993 mm^2
            Peak Dynamic = 0.286975 W
            Subthreshold Leakage = 0.178009 W
            Subthreshold Leakage with power gating = 0.080104 W
            Gate Leakage = 0.0185411 W
            Runtime Dynamic = 0.0706892 W

      Renaming Unit:
        Area = 0.241898 mm^2
        Peak Dynamic = 1.48759 W
        Subthreshold Leakage = 0.0231106 W
        Subthreshold Leakage with power gating = 0.0126861 W
        Gate Leakage = 0.00568019 W
        Runtime Dynamic = 0.0835664 W

          Int Front End RAT:
            Area = 0.0412007 mm^2
            Peak Dynamic = 0.079976 W
            Subthreshold Leakage = 0.00137358 W
            Subthreshold Leakage with power gating = 0.000782942 W
            Gate Leakage = 0.000185798 W
            Runtime Dynamic = 0.0170089 W

          FP Front End RAT:
            Area = 0.168486 mm^2
            Peak Dynamic = 1.33648 W
            Subthreshold Leakage = 0.0175733 W
            Subthreshold Leakage with power gating = 0.0100168 W
            Gate Leakage = 0.00408109 W
            Runtime Dynamic = 0.0640308 W

          Free List:
            Area = 0.00946771 mm^2
            Peak Dynamic = 0.00429354 W
            Subthreshold Leakage = 0.000113339 W
            Subthreshold Leakage with power gating = 6.37662e-05 W
            Gate Leakage = 1.92322e-05 W
            Runtime Dynamic = 0.00252662 W

      Load Store Unit:
        Area = 7.63089 mm^2
        Peak Dynamic = 0.955165 W
        Subthreshold Leakage = 0.216468 W
        Subthreshold Leakage with power gating = 0.112592 W
        Gate Leakage = 0.0271839 W
        Runtime Dynamic = 0.255176 W

          Data Cache:
            Area = 5.88959 mm^2
            Peak Dynamic = 0.904862 W
            Subthreshold Leakage = 0.194743 W
            Subthreshold Leakage with power gating = 0.100694 W
            Gate Leakage = 0.0225409 W
            Runtime Dynamic = 0.182393 W

          LoadQ:
            Area = 0.083675 mm^2
            Peak Dynamic = 0.0122727 W
            Subthreshold Leakage = 0.00378553 W
            Subthreshold Leakage with power gating = 0.00215775 W
            Gate Leakage = 0.000499133 W
            Runtime Dynamic = 0.0122727 W

          StoreQ:
            Area = 0.322068 mm^2
            Peak Dynamic = 0.0302554 W
            Subthreshold Leakage = 0.0138897 W
            Subthreshold Leakage with power gating = 0.00791712 W
            Gate Leakage = 0.00274976 W
            Runtime Dynamic = 0.0605107 W

      Memory Management Unit:
        Area = 0.412258 mm^2
        Peak Dynamic = 0.131607 W
        Subthreshold Leakage = 0.0269355 W
        Subthreshold Leakage with power gating = 0.0148672 W
        Gate Leakage = 0.00541234 W
        Runtime Dynamic = 0.0106926 W

          Itlb:
            Area = 0.301544 mm^2
            Peak Dynamic = 0.0837059 W
            Subthreshold Leakage = 0.016628 W
            Subthreshold Leakage with power gating = 0.00947795 W
            Gate Leakage = 0.00327886 W
            Runtime Dynamic = 0 W

          Dtlb:
            Area = 0.087971 mm^2
            Peak Dynamic = 0.0105924 W
            Subthreshold Leakage = 0.0062572 W
            Subthreshold Leakage with power gating = 0.0035666 W
            Gate Leakage = 0.000739408 W
            Runtime Dynamic = 0.0106926 W

      Execution Unit:
        Area = 6.15969 mm^2
        Peak Dynamic = 1.17221 W
        Subthreshold Leakage = 0.610815 W
        Subthreshold Leakage with power gating = 0.276988 W
        Gate Leakage = 0.0843041 W
        Runtime Dynamic = 0.848747 W

          Register Files:
            Area = 0.189451 mm^2
            Peak Dynamic = 0.0191422 W
            Subthreshold Leakage = 0.00161932 W
            Subthreshold Leakage with power gating = 0.000808503 W
            Gate Leakage = 0.00019683 W
            Runtime Dynamic = 0.0147727 W

              Integer RF:
                Area = 0.116356 mm^2
                Peak Dynamic = 0.0129259 W
                Subthreshold Leakage = 0.000888822 W
                Subthreshold Leakage with power gating = 0.000427225 W
                Gate Leakage = 0.000113547 W
                Runtime Dynamic = 0.0128703 W

              Floating Point RF:
                Area = 0.0730949 mm^2
                Peak Dynamic = 0.00621625 W
                Subthreshold Leakage = 0.000730494 W
                Subthreshold Leakage with power gating = 0.000381278 W
                Gate Leakage = 8.32836e-05 W
                Runtime Dynamic = 0.0019024 W

          Instruction Scheduler:
            Area = 0.788091 mm^2
            Peak Dynamic = 0.882298 W
            Subthreshold Leakage = 0.0176111 W
            Subthreshold Leakage with power gating = 0.00996617 W
            Gate Leakage = 0.00235744 W
            Runtime Dynamic = 0.194595 W

              Instruction Window:
                Area = 0.270013 mm^2
                Peak Dynamic = 0.23762 W
                Subthreshold Leakage = 0.00886749 W
                Subthreshold Leakage with power gating = 0.00504561 W
                Gate Leakage = 0.00122144 W
                Runtime Dynamic = 0.0770232 W

              FP Instruction Window:
                Area = 0.316102 mm^2
                Peak Dynamic = 0.485481 W
                Subthreshold Leakage = 0.00651416 W
                Subthreshold Leakage with power gating = 0.00370421 W
                Gate Leakage = 0.000909172 W
                Runtime Dynamic = 0.0783497 W

              ROB:
                Area = 0.201976 mm^2
                Peak Dynamic = 0.159197 W
                Subthreshold Leakage = 0.00222944 W
                Subthreshold Leakage with power gating = 0.00121634 W
                Gate Leakage = 0.00022683 W
                Runtime Dynamic = 0.0392217 W

          Integer ALUs (Count: 3 ):
            Area = 0.235435 mm^2
            Peak Dynamic = 0.0708067 W
            Subthreshold Leakage = 0.0808216 W
            Subthreshold Leakage with power gating = 0.0363697 W
            Gate Leakage = 0.0110538 W
            Runtime Dynamic = 0.125845 W

          Floating Point Units (FPUs) (Count: 2 ):
            Area = 4.6585 mm^2
            Peak Dynamic = 0.109327 W
            Subthreshold Leakage = 0.3998 W
            Subthreshold Leakage with power gating = 0.17991 W
            Gate Leakage = 0.0546797 W
            Runtime Dynamic = 0.255682 W

          Complex ALUs (Mul/Div) (Count: 1 ):
            Area = 0.235435 mm^2
            Peak Dynamic = 0.0180446 W
            Subthreshold Leakage = 0.0808216 W
            Subthreshold Leakage with power gating = 0.0363697 W
            Gate Leakage = 0.0110538 W
            Runtime Dynamic = 0.153165 W

          Results Broadcast Bus:
            Area Overhead = 0.0300341 mm^2
            Peak Dynamic = 0.0637511 W
            Subthreshold Leakage = 0.0260916 W
            Subthreshold Leakage with power gating = 0.0117412 W
            Gate Leakage = 0.00356849 W
            Runtime Dynamic = 0.104688 W

    L2
    Area = 3.08398 mm^2
    Peak Dynamic = 0.00642889 W
    Subthreshold Leakage = 0.237347 W
    Subthreshold Leakage with power gating = 0.12756 W
    Gate Leakage = 0.0118838 W
    Runtime Dynamic = 0.00143079 W

*****************************************************************************************
      L3
      Area = 62.2194 mm^2
      Peak Dynamic = 0.0365588 W
      Subthreshold Leakage = 2.73753 W
      Subthreshold Leakage with power gating = 1.55288 W
      Gate Leakage = 0.0404867 W
      Runtime Dynamic = 0.0228547 W

*****************************************************************************************
BUSES
      Area = 0.673906 mm^2
      Peak Dynamic = 0 W
      Subthreshold Leakage = 0.0302265 W
      Subthreshold Leakage with power gating = 0.0136019 W
      Gate Leakage = 0.00601057 W
      Runtime Dynamic = 0 W

      Bus: 
        Area = 0.673906 mm^2
        Peak Dynamic = 0 W
        Subthreshold Leakage = 0.0302265 W
        Subthreshold Leakage with power gating = 0.0136019 W
        Gate Leakage = 0.00601057 W
        Runtime Dynamic = 0 W

*****************************************************************************************
