McPAT (version 1.0 of Aug, 2013) is computing the target processor...
 

McPAT (version 1.0 of Aug, 2013) results  (current print level is 5)
*****************************************************************************************
  Technology 45 nm
  Using Long Channel Devices When Appropriate
  Interconnect metal projection= aggressive interconnect technology projection
  Core clock Rate(MHz) 1600

*****************************************************************************************
Processor: 
  Area = 143.072 mm^2
  Peak Power = 29.1383 W
  Total Leakage = 10.3729 W
  Peak Dynamic = 18.7654 W
  Subthreshold Leakage = 9.469 W
  Subthreshold Leakage with power gating = 4.90906 W
  Gate Leakage = 0.903857 W
  Runtime Dynamic = 5.25235 W

  Total Cores: 3 cores 
  Device Type= ITRS high performance device type
    Area = 80.2464 mm^2
    Peak Dynamic = 18.6231 W
    Subthreshold Leakage = 6.70428 W
    Subthreshold Leakage with power gating = 3.19508 W
    Gate Leakage = 0.857964 W
    Runtime Dynamic = 5.15902 W

  Total L3s: 
  Device Type= ITRS high performance device type
    Area = 62.2194 mm^2
    Peak Dynamic = 0.142263 W
    Subthreshold Leakage = 2.73753 W
    Subthreshold Leakage with power gating = 1.55288 W
    Gate Leakage = 0.0404867 W
    Runtime Dynamic = 0.0933282 W

  Total NoCs (Network/Bus): 
  Device Type= ITRS high performance device type
    Area = 0.606171 mm^2
    Peak Dynamic = 0 W
    Subthreshold Leakage = 0.0271884 W
    Subthreshold Leakage with power gating = 0.0122348 W
    Gate Leakage = 0.00540644 W
    Runtime Dynamic = 0 W

*****************************************************************************************
Core:
      Area = 26.7488 mm^2
      Peak Dynamic = 6.18947 W
      Subthreshold Leakage = 2.23476 W
      Subthreshold Leakage with power gating = 1.06503 W
      Gate Leakage = 0.285988 W
      Runtime Dynamic = 1.71115 W

      Instruction Fetch Unit:
        Area = 4.82339 mm^2
        Peak Dynamic = 1.96767 W
        Subthreshold Leakage = 0.365421 W
        Subthreshold Leakage with power gating = 0.180734 W
        Gate Leakage = 0.0483102 W
        Runtime Dynamic = 0.0882422 W

          Instruction Cache:
            Area = 2.93588 mm^2
            Peak Dynamic = 1.49366 W
            Subthreshold Leakage = 0.138238 W
            Subthreshold Leakage with power gating = 0.0724173 W
            Gate Leakage = 0.024379 W
            Runtime Dynamic = 0 W

          Branch Target Buffer:
            Area = 0.789969 mm^2
            Peak Dynamic = 0.0809601 W
            Subthreshold Leakage = 0.0368499 W
            Subthreshold Leakage with power gating = 0.021557 W
            Gate Leakage = 0.00333823 W
            Runtime Dynamic = 0.0019964 W

          Branch Predictor:
            Area = 0.139613 mm^2
            Peak Dynamic = 0.0270402 W
            Subthreshold Leakage = 0.00802563 W
            Subthreshold Leakage with power gating = 0.00469502 W
            Gate Leakage = 0.000631381 W
            Runtime Dynamic = 0.000951871 W

              Global Predictor:
                Area = 0.0443718 mm^2
                Peak Dynamic = 0.00780437 W
                Subthreshold Leakage = 0.00305314 W
                Subthreshold Leakage with power gating = 0.00178441 W
                Gate Leakage = 0.000231968 W
                Runtime Dynamic = 0.000212578 W

              Local Predictor:
              L1_Local Predictor:
                Area = 0.0264164 mm^2
                Peak Dynamic = 0.00635992 W
                Subthreshold Leakage = 0.00154459 W
                Subthreshold Leakage with power gating = 0.000902955 W
                Gate Leakage = 0.00012879 W
                Runtime Dynamic = 0.000179808 W

              L2_Local Predictor:
                Area = 0.0135618 mm^2
                Peak Dynamic = 0.00324353 W
                Subthreshold Leakage = 0.000782464 W
                Subthreshold Leakage with power gating = 0.000456083 W
                Gate Leakage = 6.76797e-05 W
                Runtime Dynamic = 9.17244e-05 W

              Chooser:
                Area = 0.0443718 mm^2
                Peak Dynamic = 0.00780437 W
                Subthreshold Leakage = 0.00305314 W
                Subthreshold Leakage with power gating = 0.00178441 W
                Gate Leakage = 0.000231968 W
                Runtime Dynamic = 0.000212578 W

              RAS:
                Area = 0.0108915 mm^2
                Peak Dynamic = 0.0050715 W
                Subthreshold Leakage = 0.000374753 W
                Subthreshold Leakage with power gating = 0.000223242 W
                Gate Leakage = 3.86548e-05 W
                Runtime Dynamic = 0.000346906 W

          Instruction Buffer:
            Area = 0.00619634 mm^2
            Peak Dynamic = 0.0429076 W
            Subthreshold Leakage = 0.000247453 W
            Subthreshold Leakage with power gating = 0.000138425 W
            Gate Leakage = 2.64138e-05 W
            Runtime Dynamic = 0.00773128 W

          Instruction Decoder:
            Area = 0.928993 mm^2
            Peak Dynamic = 0.286975 W
            Subthreshold Leakage = 0.178009 W
            Subthreshold Leakage with power gating = 0.080104 W
            Gate Leakage = 0.0185411 W
            Runtime Dynamic = 0.0775626 W

      Renaming Unit:
        Area = 0.241898 mm^2
        Peak Dynamic = 1.48759 W
        Subthreshold Leakage = 0.0231106 W
        Subthreshold Leakage with power gating = 0.0126861 W
        Gate Leakage = 0.00568019 W
        Runtime Dynamic = 0.169137 W

          Int Front End RAT:
            Area = 0.0412007 mm^2
            Peak Dynamic = 0.079976 W
            Subthreshold Leakage = 0.00137358 W
            Subthreshold Leakage with power gating = 0.000782942 W
            Gate Leakage = 0.000185798 W
            Runtime Dynamic = 0.0166671 W

          FP Front End RAT:
            Area = 0.168486 mm^2
            Peak Dynamic = 1.33648 W
            Subthreshold Leakage = 0.0175733 W
            Subthreshold Leakage with power gating = 0.0100168 W
            Gate Leakage = 0.00408109 W
            Runtime Dynamic = 0.14919 W

          Free List:
            Area = 0.00946771 mm^2
            Peak Dynamic = 0.00429354 W
            Subthreshold Leakage = 0.000113339 W
            Subthreshold Leakage with power gating = 6.37662e-05 W
            Gate Leakage = 1.92322e-05 W
            Runtime Dynamic = 0.00327945 W

      Load Store Unit:
        Area = 7.63089 mm^2
        Peak Dynamic = 1.20678 W
        Subthreshold Leakage = 0.216468 W
        Subthreshold Leakage with power gating = 0.112592 W
        Gate Leakage = 0.0271839 W
        Runtime Dynamic = 0.433627 W

          Data Cache:
            Area = 5.88959 mm^2
            Peak Dynamic = 1.12686 W
            Subthreshold Leakage = 0.194743 W
            Subthreshold Leakage with power gating = 0.100694 W
            Gate Leakage = 0.0225409 W
            Runtime Dynamic = 0.317987 W

          LoadQ:
            Area = 0.083675 mm^2
            Peak Dynamic = 0.0194991 W
            Subthreshold Leakage = 0.00378553 W
            Subthreshold Leakage with power gating = 0.00215775 W
            Gate Leakage = 0.000499133 W
            Runtime Dynamic = 0.0194991 W

          StoreQ:
            Area = 0.322068 mm^2
            Peak Dynamic = 0.0480702 W
            Subthreshold Leakage = 0.0138897 W
            Subthreshold Leakage with power gating = 0.00791712 W
            Gate Leakage = 0.00274976 W
            Runtime Dynamic = 0.0961407 W

      Memory Management Unit:
        Area = 0.412258 mm^2
        Peak Dynamic = 0.148272 W
        Subthreshold Leakage = 0.0269355 W
        Subthreshold Leakage with power gating = 0.0148672 W
        Gate Leakage = 0.00541234 W
        Runtime Dynamic = 0.0177709 W

          Itlb:
            Area = 0.301544 mm^2
            Peak Dynamic = 0.0918451 W
            Subthreshold Leakage = 0.016628 W
            Subthreshold Leakage with power gating = 0.00947795 W
            Gate Leakage = 0.00327886 W
            Runtime Dynamic = 0 W

          Dtlb:
            Area = 0.087971 mm^2
            Peak Dynamic = 0.0168294 W
            Subthreshold Leakage = 0.0062572 W
            Subthreshold Leakage with power gating = 0.0035666 W
            Gate Leakage = 0.000739408 W
            Runtime Dynamic = 0.0177709 W

      Execution Unit:
        Area = 6.15969 mm^2
        Peak Dynamic = 1.31875 W
        Subthreshold Leakage = 0.610815 W
        Subthreshold Leakage with power gating = 0.276988 W
        Gate Leakage = 0.0843041 W
        Runtime Dynamic = 0.989422 W

          Register Files:
            Area = 0.189451 mm^2
            Peak Dynamic = 0.0269021 W
            Subthreshold Leakage = 0.00161932 W
            Subthreshold Leakage with power gating = 0.000808503 W
            Gate Leakage = 0.00019683 W
            Runtime Dynamic = 0.0162091 W

              Integer RF:
                Area = 0.116356 mm^2
                Peak Dynamic = 0.0124184 W
                Subthreshold Leakage = 0.000888822 W
                Subthreshold Leakage with power gating = 0.000427225 W
                Gate Leakage = 0.000113547 W
                Runtime Dynamic = 0.0141218 W

              Floating Point RF:
                Area = 0.0730949 mm^2
                Peak Dynamic = 0.0144837 W
                Subthreshold Leakage = 0.000730494 W
                Subthreshold Leakage with power gating = 0.000381278 W
                Gate Leakage = 8.32836e-05 W
                Runtime Dynamic = 0.00208738 W

          Instruction Scheduler:
            Area = 0.788091 mm^2
            Peak Dynamic = 0.882298 W
            Subthreshold Leakage = 0.0176111 W
            Subthreshold Leakage with power gating = 0.00996617 W
            Gate Leakage = 0.00235744 W
            Runtime Dynamic = 0.218989 W

              Instruction Window:
                Area = 0.270013 mm^2
                Peak Dynamic = 0.23762 W
                Subthreshold Leakage = 0.00886749 W
                Subthreshold Leakage with power gating = 0.00504561 W
                Gate Leakage = 0.00122144 W
                Runtime Dynamic = 0.0845125 W

              FP Instruction Window:
                Area = 0.316102 mm^2
                Peak Dynamic = 0.485481 W
                Subthreshold Leakage = 0.00651416 W
                Subthreshold Leakage with power gating = 0.00370421 W
                Gate Leakage = 0.000909172 W
                Runtime Dynamic = 0.085968 W

              ROB:
                Area = 0.201976 mm^2
                Peak Dynamic = 0.159197 W
                Subthreshold Leakage = 0.00222944 W
                Subthreshold Leakage with power gating = 0.00121634 W
                Gate Leakage = 0.00022683 W
                Runtime Dynamic = 0.0485083 W

          Integer ALUs (Count: 3 ):
            Area = 0.235435 mm^2
            Peak Dynamic = 0.0566151 W
            Subthreshold Leakage = 0.0808216 W
            Subthreshold Leakage with power gating = 0.0363697 W
            Gate Leakage = 0.0110538 W
            Runtime Dynamic = 0.126399 W

          Floating Point Units (FPUs) (Count: 2 ):
            Area = 4.6585 mm^2
            Peak Dynamic = 0.254728 W
            Subthreshold Leakage = 0.3998 W
            Subthreshold Leakage with power gating = 0.17991 W
            Gate Leakage = 0.0546797 W
            Runtime Dynamic = 0.31493 W

          Complex ALUs (Mul/Div) (Count: 1 ):
            Area = 0.235435 mm^2
            Peak Dynamic = 0.027905 W
            Subthreshold Leakage = 0.0808216 W
            Subthreshold Leakage with power gating = 0.0363697 W
            Gate Leakage = 0.0110538 W
            Runtime Dynamic = 0.159946 W

          Results Broadcast Bus:
            Area Overhead = 0.0300341 mm^2
            Peak Dynamic = 0.0632302 W
            Subthreshold Leakage = 0.0260916 W
            Subthreshold Leakage with power gating = 0.0117412 W
            Gate Leakage = 0.00356849 W
            Runtime Dynamic = 0.152949 W

    L2
    Area = 3.08398 mm^2
    Peak Dynamic = 0.0604035 W
    Subthreshold Leakage = 0.237347 W
    Subthreshold Leakage with power gating = 0.12756 W
    Gate Leakage = 0.0118838 W
    Runtime Dynamic = 0.00809326 W

*****************************************************************************************
Core:
      Area = 26.7488 mm^2
      Peak Dynamic = 6.24187 W
      Subthreshold Leakage = 2.23476 W
      Subthreshold Leakage with power gating = 1.06503 W
      Gate Leakage = 0.285988 W
      Runtime Dynamic = 1.7352 W

      Instruction Fetch Unit:
        Area = 4.82339 mm^2
        Peak Dynamic = 1.99687 W
        Subthreshold Leakage = 0.365421 W
        Subthreshold Leakage with power gating = 0.180734 W
        Gate Leakage = 0.0483102 W
        Runtime Dynamic = 0.0899097 W

          Instruction Cache:
            Area = 2.93588 mm^2
            Peak Dynamic = 1.52217 W
            Subthreshold Leakage = 0.138238 W
            Subthreshold Leakage with power gating = 0.0724173 W
            Gate Leakage = 0.024379 W
            Runtime Dynamic = 0 W

          Branch Target Buffer:
            Area = 0.789969 mm^2
            Peak Dynamic = 0.0809601 W
            Subthreshold Leakage = 0.0368499 W
            Subthreshold Leakage with power gating = 0.021557 W
            Gate Leakage = 0.00333823 W
            Runtime Dynamic = 0.00202178 W

          Branch Predictor:
            Area = 0.139613 mm^2
            Peak Dynamic = 0.0270402 W
            Subthreshold Leakage = 0.00802563 W
            Subthreshold Leakage with power gating = 0.00469502 W
            Gate Leakage = 0.000631381 W
            Runtime Dynamic = 0.000965811 W

              Global Predictor:
                Area = 0.0443718 mm^2
                Peak Dynamic = 0.00780437 W
                Subthreshold Leakage = 0.00305314 W
                Subthreshold Leakage with power gating = 0.00178441 W
                Gate Leakage = 0.000231968 W
                Runtime Dynamic = 0.000215162 W

              Local Predictor:
              L1_Local Predictor:
                Area = 0.0264164 mm^2
                Peak Dynamic = 0.00635992 W
                Subthreshold Leakage = 0.00154459 W
                Subthreshold Leakage with power gating = 0.000902955 W
                Gate Leakage = 0.00012879 W
                Runtime Dynamic = 0.000181959 W

              L2_Local Predictor:
                Area = 0.0135618 mm^2
                Peak Dynamic = 0.00324353 W
                Subthreshold Leakage = 0.000782464 W
                Subthreshold Leakage with power gating = 0.000456083 W
                Gate Leakage = 6.76797e-05 W
                Runtime Dynamic = 9.28213e-05 W

              Chooser:
                Area = 0.0443718 mm^2
                Peak Dynamic = 0.00780437 W
                Subthreshold Leakage = 0.00305314 W
                Subthreshold Leakage with power gating = 0.00178441 W
                Gate Leakage = 0.000231968 W
                Runtime Dynamic = 0.000215162 W

              RAS:
                Area = 0.0108915 mm^2
                Peak Dynamic = 0.0050715 W
                Subthreshold Leakage = 0.000374753 W
                Subthreshold Leakage with power gating = 0.000223242 W
                Gate Leakage = 3.86548e-05 W
                Runtime Dynamic = 0.000353528 W

          Instruction Buffer:
            Area = 0.00619634 mm^2
            Peak Dynamic = 0.0429076 W
            Subthreshold Leakage = 0.000247453 W
            Subthreshold Leakage with power gating = 0.000138425 W
            Gate Leakage = 2.64138e-05 W
            Runtime Dynamic = 0.00787886 W

          Instruction Decoder:
            Area = 0.928993 mm^2
            Peak Dynamic = 0.286975 W
            Subthreshold Leakage = 0.178009 W
            Subthreshold Leakage with power gating = 0.080104 W
            Gate Leakage = 0.0185411 W
            Runtime Dynamic = 0.0790432 W

      Renaming Unit:
        Area = 0.241898 mm^2
        Peak Dynamic = 1.48759 W
        Subthreshold Leakage = 0.0231106 W
        Subthreshold Leakage with power gating = 0.0126861 W
        Gate Leakage = 0.00568019 W
        Runtime Dynamic = 0.173026 W

          Int Front End RAT:
            Area = 0.0412007 mm^2
            Peak Dynamic = 0.079976 W
            Subthreshold Leakage = 0.00137358 W
            Subthreshold Leakage with power gating = 0.000782942 W
            Gate Leakage = 0.000185798 W
            Runtime Dynamic = 0.0169682 W

          FP Front End RAT:
            Area = 0.168486 mm^2
            Peak Dynamic = 1.33648 W
            Subthreshold Leakage = 0.0175733 W
            Subthreshold Leakage with power gating = 0.0100168 W
            Gate Leakage = 0.00408109 W
            Runtime Dynamic = 0.152712 W

          Free List:
            Area = 0.00946771 mm^2
            Peak Dynamic = 0.00429354 W
            Subthreshold Leakage = 0.000113339 W
            Subthreshold Leakage with power gating = 6.37662e-05 W
            Gate Leakage = 1.92322e-05 W
            Runtime Dynamic = 0.00334638 W

      Load Store Unit:
        Area = 7.63089 mm^2
        Peak Dynamic = 1.21683 W
        Subthreshold Leakage = 0.216468 W
        Subthreshold Leakage with power gating = 0.112592 W
        Gate Leakage = 0.0271839 W
        Runtime Dynamic = 0.440135 W

          Data Cache:
            Area = 5.88959 mm^2
            Peak Dynamic = 1.13573 W
            Subthreshold Leakage = 0.194743 W
            Subthreshold Leakage with power gating = 0.100694 W
            Gate Leakage = 0.0225409 W
            Runtime Dynamic = 0.322783 W

          LoadQ:
            Area = 0.083675 mm^2
            Peak Dynamic = 0.0197878 W
            Subthreshold Leakage = 0.00378553 W
            Subthreshold Leakage with power gating = 0.00215775 W
            Gate Leakage = 0.000499133 W
            Runtime Dynamic = 0.0197878 W

          StoreQ:
            Area = 0.322068 mm^2
            Peak Dynamic = 0.0487821 W
            Subthreshold Leakage = 0.0138897 W
            Subthreshold Leakage with power gating = 0.00791712 W
            Gate Leakage = 0.00274976 W
            Runtime Dynamic = 0.0975643 W

      Memory Management Unit:
        Area = 0.412258 mm^2
        Peak Dynamic = 0.150366 W
        Subthreshold Leakage = 0.0269355 W
        Subthreshold Leakage with power gating = 0.0148672 W
        Gate Leakage = 0.00541234 W
        Runtime Dynamic = 0.0180362 W

          Itlb:
            Area = 0.301544 mm^2
            Peak Dynamic = 0.0935982 W
            Subthreshold Leakage = 0.016628 W
            Subthreshold Leakage with power gating = 0.00947795 W
            Gate Leakage = 0.00327886 W
            Runtime Dynamic = 0 W

          Dtlb:
            Area = 0.087971 mm^2
            Peak Dynamic = 0.0170786 W
            Subthreshold Leakage = 0.0062572 W
            Subthreshold Leakage with power gating = 0.0035666 W
            Gate Leakage = 0.000739408 W
            Runtime Dynamic = 0.0180362 W

      Execution Unit:
        Area = 6.15969 mm^2
        Peak Dynamic = 1.32877 W
        Subthreshold Leakage = 0.610815 W
        Subthreshold Leakage with power gating = 0.276988 W
        Gate Leakage = 0.0843041 W
        Runtime Dynamic = 1.00083 W

          Register Files:
            Area = 0.189451 mm^2
            Peak Dynamic = 0.0275169 W
            Subthreshold Leakage = 0.00161932 W
            Subthreshold Leakage with power gating = 0.000808503 W
            Gate Leakage = 0.00019683 W
            Runtime Dynamic = 0.0165185 W

              Integer RF:
                Area = 0.116356 mm^2
                Peak Dynamic = 0.0126913 W
                Subthreshold Leakage = 0.000888822 W
                Subthreshold Leakage with power gating = 0.000427225 W
                Gate Leakage = 0.000113547 W
                Runtime Dynamic = 0.0143913 W

              Floating Point RF:
                Area = 0.0730949 mm^2
                Peak Dynamic = 0.0148256 W
                Subthreshold Leakage = 0.000730494 W
                Subthreshold Leakage with power gating = 0.000381278 W
                Gate Leakage = 8.32836e-05 W
                Runtime Dynamic = 0.00212722 W

          Instruction Scheduler:
            Area = 0.788091 mm^2
            Peak Dynamic = 0.882298 W
            Subthreshold Leakage = 0.0176111 W
            Subthreshold Leakage with power gating = 0.00996617 W
            Gate Leakage = 0.00235744 W
            Runtime Dynamic = 0.223091 W

              Instruction Window:
                Area = 0.270013 mm^2
                Peak Dynamic = 0.23762 W
                Subthreshold Leakage = 0.00886749 W
                Subthreshold Leakage with power gating = 0.00504561 W
                Gate Leakage = 0.00122144 W
                Runtime Dynamic = 0.0861257 W

              FP Instruction Window:
                Area = 0.316102 mm^2
                Peak Dynamic = 0.485481 W
                Subthreshold Leakage = 0.00651416 W
                Subthreshold Leakage with power gating = 0.00370421 W
                Gate Leakage = 0.000909172 W
                Runtime Dynamic = 0.087609 W

              ROB:
                Area = 0.201976 mm^2
                Peak Dynamic = 0.159197 W
                Subthreshold Leakage = 0.00222944 W
                Subthreshold Leakage with power gating = 0.00121634 W
                Gate Leakage = 0.00022683 W
                Runtime Dynamic = 0.0493563 W

          Integer ALUs (Count: 3 ):
            Area = 0.235435 mm^2
            Peak Dynamic = 0.0575159 W
            Subthreshold Leakage = 0.0808216 W
            Subthreshold Leakage with power gating = 0.0363697 W
            Gate Leakage = 0.0110538 W
            Runtime Dynamic = 0.127185 W

          Floating Point Units (FPUs) (Count: 2 ):
            Area = 4.6585 mm^2
            Peak Dynamic = 0.260741 W
            Subthreshold Leakage = 0.3998 W
            Subthreshold Leakage with power gating = 0.17991 W
            Gate Leakage = 0.0546797 W
            Runtime Dynamic = 0.317379 W

          Complex ALUs (Mul/Div) (Count: 1 ):
            Area = 0.235435 mm^2
            Peak Dynamic = 0.0288366 W
            Subthreshold Leakage = 0.0808216 W
            Subthreshold Leakage with power gating = 0.0363697 W
            Gate Leakage = 0.0110538 W
            Runtime Dynamic = 0.160587 W

          Results Broadcast Bus:
            Area Overhead = 0.0300341 mm^2
            Peak Dynamic = 0.0646798 W
            Subthreshold Leakage = 0.0260916 W
            Subthreshold Leakage with power gating = 0.0117412 W
            Gate Leakage = 0.00356849 W
            Runtime Dynamic = 0.156064 W

    L2
    Area = 3.08398 mm^2
    Peak Dynamic = 0.0614333 W
    Subthreshold Leakage = 0.237347 W
    Subthreshold Leakage with power gating = 0.12756 W
    Gate Leakage = 0.0118838 W
    Runtime Dynamic = 0.00828947 W

*****************************************************************************************
Core:
      Area = 26.7488 mm^2
      Peak Dynamic = 6.19181 W
      Subthreshold Leakage = 2.23476 W
      Subthreshold Leakage with power gating = 1.06503 W
      Gate Leakage = 0.285988 W
      Runtime Dynamic = 1.71267 W

      Instruction Fetch Unit:
        Area = 4.82339 mm^2
        Peak Dynamic = 1.96974 W
        Subthreshold Leakage = 0.365421 W
        Subthreshold Leakage with power gating = 0.180734 W
        Gate Leakage = 0.0483102 W
        Runtime Dynamic = 0.0883717 W

          Instruction Cache:
            Area = 2.93588 mm^2
            Peak Dynamic = 1.49568 W
            Subthreshold Leakage = 0.138238 W
            Subthreshold Leakage with power gating = 0.0724173 W
            Gate Leakage = 0.024379 W
            Runtime Dynamic = 0 W

          Branch Target Buffer:
            Area = 0.789969 mm^2
            Peak Dynamic = 0.0809601 W
            Subthreshold Leakage = 0.0368499 W
            Subthreshold Leakage with power gating = 0.021557 W
            Gate Leakage = 0.00333823 W
            Runtime Dynamic = 0.00200701 W

          Branch Predictor:
            Area = 0.139613 mm^2
            Peak Dynamic = 0.0270402 W
            Subthreshold Leakage = 0.00802563 W
            Subthreshold Leakage with power gating = 0.00469502 W
            Gate Leakage = 0.000631381 W
            Runtime Dynamic = 0.000955211 W

              Global Predictor:
                Area = 0.0443718 mm^2
                Peak Dynamic = 0.00780437 W
                Subthreshold Leakage = 0.00305314 W
                Subthreshold Leakage with power gating = 0.00178441 W
                Gate Leakage = 0.000231968 W
                Runtime Dynamic = 0.000213599 W

              Local Predictor:
              L1_Local Predictor:
                Area = 0.0264164 mm^2
                Peak Dynamic = 0.00635992 W
                Subthreshold Leakage = 0.00154459 W
                Subthreshold Leakage with power gating = 0.000902955 W
                Gate Leakage = 0.00012879 W
                Runtime Dynamic = 0.000180639 W

              L2_Local Predictor:
                Area = 0.0135618 mm^2
                Peak Dynamic = 0.00324353 W
                Subthreshold Leakage = 0.000782464 W
                Subthreshold Leakage with power gating = 0.000456083 W
                Gate Leakage = 6.76797e-05 W
                Runtime Dynamic = 9.2148e-05 W

              Chooser:
                Area = 0.0443718 mm^2
                Peak Dynamic = 0.00780437 W
                Subthreshold Leakage = 0.00305314 W
                Subthreshold Leakage with power gating = 0.00178441 W
                Gate Leakage = 0.000231968 W
                Runtime Dynamic = 0.000213599 W

              RAS:
                Area = 0.0108915 mm^2
                Peak Dynamic = 0.0050715 W
                Subthreshold Leakage = 0.000374753 W
                Subthreshold Leakage with power gating = 0.000223242 W
                Gate Leakage = 3.86548e-05 W
                Runtime Dynamic = 0.000347376 W

          Instruction Buffer:
            Area = 0.00619634 mm^2
            Peak Dynamic = 0.0429076 W
            Subthreshold Leakage = 0.000247453 W
            Subthreshold Leakage with power gating = 0.000138425 W
            Gate Leakage = 2.64138e-05 W
            Runtime Dynamic = 0.00774175 W

          Instruction Decoder:
            Area = 0.928993 mm^2
            Peak Dynamic = 0.286975 W
            Subthreshold Leakage = 0.178009 W
            Subthreshold Leakage with power gating = 0.080104 W
            Gate Leakage = 0.0185411 W
            Runtime Dynamic = 0.0776677 W

      Renaming Unit:
        Area = 0.241898 mm^2
        Peak Dynamic = 1.48759 W
        Subthreshold Leakage = 0.0231106 W
        Subthreshold Leakage with power gating = 0.0126861 W
        Gate Leakage = 0.00568019 W
        Runtime Dynamic = 0.169647 W

          Int Front End RAT:
            Area = 0.0412007 mm^2
            Peak Dynamic = 0.079976 W
            Subthreshold Leakage = 0.00137358 W
            Subthreshold Leakage with power gating = 0.000782942 W
            Gate Leakage = 0.000185798 W
            Runtime Dynamic = 0.016679 W

          FP Front End RAT:
            Area = 0.168486 mm^2
            Peak Dynamic = 1.33648 W
            Subthreshold Leakage = 0.0175733 W
            Subthreshold Leakage with power gating = 0.0100168 W
            Gate Leakage = 0.00408109 W
            Runtime Dynamic = 0.149682 W

          Free List:
            Area = 0.00946771 mm^2
            Peak Dynamic = 0.00429354 W
            Subthreshold Leakage = 0.000113339 W
            Subthreshold Leakage with power gating = 6.37662e-05 W
            Gate Leakage = 1.92322e-05 W
            Runtime Dynamic = 0.00328576 W

      Load Store Unit:
        Area = 7.63089 mm^2
        Peak Dynamic = 1.20577 W
        Subthreshold Leakage = 0.216468 W
        Subthreshold Leakage with power gating = 0.112592 W
        Gate Leakage = 0.0271839 W
        Runtime Dynamic = 0.433701 W

          Data Cache:
            Area = 5.88959 mm^2
            Peak Dynamic = 1.12597 W
            Subthreshold Leakage = 0.194743 W
            Subthreshold Leakage with power gating = 0.100694 W
            Gate Leakage = 0.0225409 W
            Runtime Dynamic = 0.318234 W

          LoadQ:
            Area = 0.083675 mm^2
            Peak Dynamic = 0.01947 W
            Subthreshold Leakage = 0.00378553 W
            Subthreshold Leakage with power gating = 0.00215775 W
            Gate Leakage = 0.000499133 W
            Runtime Dynamic = 0.01947 W

          StoreQ:
            Area = 0.322068 mm^2
            Peak Dynamic = 0.0479987 W
            Subthreshold Leakage = 0.0138897 W
            Subthreshold Leakage with power gating = 0.00791712 W
            Gate Leakage = 0.00274976 W
            Runtime Dynamic = 0.0959974 W

      Memory Management Unit:
        Area = 0.412258 mm^2
        Peak Dynamic = 0.148362 W
        Subthreshold Leakage = 0.0269355 W
        Subthreshold Leakage with power gating = 0.0148672 W
        Gate Leakage = 0.00541234 W
        Runtime Dynamic = 0.0177495 W

          Itlb:
            Area = 0.301544 mm^2
            Peak Dynamic = 0.0919694 W
            Subthreshold Leakage = 0.016628 W
            Subthreshold Leakage with power gating = 0.00947795 W
            Gate Leakage = 0.00327886 W
            Runtime Dynamic = 0 W

          Dtlb:
            Area = 0.087971 mm^2
            Peak Dynamic = 0.0168043 W
            Subthreshold Leakage = 0.0062572 W
            Subthreshold Leakage with power gating = 0.0035666 W
            Gate Leakage = 0.000739408 W
            Runtime Dynamic = 0.0177495 W

      Execution Unit:
        Area = 6.15969 mm^2
        Peak Dynamic = 1.31971 W
        Subthreshold Leakage = 0.610815 W
        Subthreshold Leakage with power gating = 0.276988 W
        Gate Leakage = 0.0843041 W
        Runtime Dynamic = 0.989992 W

          Register Files:
            Area = 0.189451 mm^2
            Peak Dynamic = 0.0269554 W
            Subthreshold Leakage = 0.00161932 W
            Subthreshold Leakage with power gating = 0.000808503 W
            Gate Leakage = 0.00019683 W
            Runtime Dynamic = 0.0162311 W

              Integer RF:
                Area = 0.116356 mm^2
                Peak Dynamic = 0.0124239 W
                Subthreshold Leakage = 0.000888822 W
                Subthreshold Leakage with power gating = 0.000427225 W
                Gate Leakage = 0.000113547 W
                Runtime Dynamic = 0.0141409 W

              Floating Point RF:
                Area = 0.0730949 mm^2
                Peak Dynamic = 0.0145314 W
                Subthreshold Leakage = 0.000730494 W
                Subthreshold Leakage with power gating = 0.000381278 W
                Gate Leakage = 8.32836e-05 W
                Runtime Dynamic = 0.0020902 W

          Instruction Scheduler:
            Area = 0.788091 mm^2
            Peak Dynamic = 0.882298 W
            Subthreshold Leakage = 0.0176111 W
            Subthreshold Leakage with power gating = 0.00996617 W
            Gate Leakage = 0.00235744 W
            Runtime Dynamic = 0.219215 W

              Instruction Window:
                Area = 0.270013 mm^2
                Peak Dynamic = 0.23762 W
                Subthreshold Leakage = 0.00886749 W
                Subthreshold Leakage with power gating = 0.00504561 W
                Gate Leakage = 0.00122144 W
                Runtime Dynamic = 0.0846269 W

              FP Instruction Window:
                Area = 0.316102 mm^2
                Peak Dynamic = 0.485481 W
                Subthreshold Leakage = 0.00651416 W
                Subthreshold Leakage with power gating = 0.00370421 W
                Gate Leakage = 0.000909172 W
                Runtime Dynamic = 0.0860844 W

              ROB:
                Area = 0.201976 mm^2
                Peak Dynamic = 0.159197 W
                Subthreshold Leakage = 0.00222944 W
                Subthreshold Leakage with power gating = 0.00121634 W
                Gate Leakage = 0.00022683 W
                Runtime Dynamic = 0.0485032 W

          Integer ALUs (Count: 3 ):
            Area = 0.235435 mm^2
            Peak Dynamic = 0.0566145 W
            Subthreshold Leakage = 0.0808216 W
            Subthreshold Leakage with power gating = 0.0363697 W
            Gate Leakage = 0.0110538 W
            Runtime Dynamic = 0.126255 W

          Floating Point Units (FPUs) (Count: 2 ):
            Area = 4.6585 mm^2
            Peak Dynamic = 0.255568 W
            Subthreshold Leakage = 0.3998 W
            Subthreshold Leakage with power gating = 0.17991 W
            Gate Leakage = 0.0546797 W
            Runtime Dynamic = 0.315272 W

          Complex ALUs (Mul/Div) (Count: 1 ):
            Area = 0.235435 mm^2
            Peak Dynamic = 0.0279415 W
            Subthreshold Leakage = 0.0808216 W
            Subthreshold Leakage with power gating = 0.0363697 W
            Gate Leakage = 0.0110538 W
            Runtime Dynamic = 0.159971 W

          Results Broadcast Bus:
            Area Overhead = 0.0300341 mm^2
            Peak Dynamic = 0.0632631 W
            Subthreshold Leakage = 0.0260916 W
            Subthreshold Leakage with power gating = 0.0117412 W
            Gate Leakage = 0.00356849 W
            Runtime Dynamic = 0.153049 W

    L2
    Area = 3.08398 mm^2
    Peak Dynamic = 0.0606351 W
    Subthreshold Leakage = 0.237347 W
    Subthreshold Leakage with power gating = 0.12756 W
    Gate Leakage = 0.0118838 W
    Runtime Dynamic = 0.00825842 W

*****************************************************************************************
      L3
      Area = 62.2194 mm^2
      Peak Dynamic = 0.142263 W
      Subthreshold Leakage = 2.73753 W
      Subthreshold Leakage with power gating = 1.55288 W
      Gate Leakage = 0.0404867 W
      Runtime Dynamic = 0.0933282 W

*****************************************************************************************
BUSES
      Area = 0.606171 mm^2
      Peak Dynamic = 0 W
      Subthreshold Leakage = 0.0271884 W
      Subthreshold Leakage with power gating = 0.0122348 W
      Gate Leakage = 0.00540644 W
      Runtime Dynamic = 0 W

      Bus: 
        Area = 0.606171 mm^2
        Peak Dynamic = 0 W
        Subthreshold Leakage = 0.0271884 W
        Subthreshold Leakage with power gating = 0.0122348 W
        Gate Leakage = 0.00540644 W
        Runtime Dynamic = 0 W

*****************************************************************************************
