McPAT (version 1.0 of Aug, 2013) is computing the target processor...
 

McPAT (version 1.0 of Aug, 2013) results  (current print level is 5)
*****************************************************************************************
  Technology 45 nm
  Using Long Channel Devices When Appropriate
  Interconnect metal projection= aggressive interconnect technology projection
  Core clock Rate(MHz) 1600

*****************************************************************************************
Processor: 
  Area = 143.072 mm^2
  Peak Power = 34.9176 W
  Total Leakage = 10.3729 W
  Peak Dynamic = 24.5448 W
  Subthreshold Leakage = 9.469 W
  Subthreshold Leakage with power gating = 4.90906 W
  Gate Leakage = 0.903857 W
  Runtime Dynamic = 7.52257 W

  Total Cores: 3 cores 
  Device Type= ITRS high performance device type
    Area = 80.2464 mm^2
    Peak Dynamic = 24.4964 W
    Subthreshold Leakage = 6.70428 W
    Subthreshold Leakage with power gating = 3.19508 W
    Gate Leakage = 0.857964 W
    Runtime Dynamic = 7.49026 W

  Total L3s: 
  Device Type= ITRS high performance device type
    Area = 62.2194 mm^2
    Peak Dynamic = 0.0484086 W
    Subthreshold Leakage = 2.73753 W
    Subthreshold Leakage with power gating = 1.55288 W
    Gate Leakage = 0.0404867 W
    Runtime Dynamic = 0.0323031 W

  Total NoCs (Network/Bus): 
  Device Type= ITRS high performance device type
    Area = 0.606171 mm^2
    Peak Dynamic = 0 W
    Subthreshold Leakage = 0.0271884 W
    Subthreshold Leakage with power gating = 0.0122348 W
    Gate Leakage = 0.00540644 W
    Runtime Dynamic = 0 W

*****************************************************************************************
Core:
      Area = 26.7488 mm^2
      Peak Dynamic = 8.27323 W
      Subthreshold Leakage = 2.23476 W
      Subthreshold Leakage with power gating = 1.06503 W
      Gate Leakage = 0.285988 W
      Runtime Dynamic = 2.60652 W

      Instruction Fetch Unit:
        Area = 4.82339 mm^2
        Peak Dynamic = 3.26792 W
        Subthreshold Leakage = 0.365421 W
        Subthreshold Leakage with power gating = 0.180734 W
        Gate Leakage = 0.0483102 W
        Runtime Dynamic = 0.215455 W

          Instruction Cache:
            Area = 2.93588 mm^2
            Peak Dynamic = 2.7632 W
            Subthreshold Leakage = 0.138238 W
            Subthreshold Leakage with power gating = 0.0724173 W
            Gate Leakage = 0.024379 W
            Runtime Dynamic = 0 W

          Branch Target Buffer:
            Area = 0.789969 mm^2
            Peak Dynamic = 0.0809601 W
            Subthreshold Leakage = 0.0368499 W
            Subthreshold Leakage with power gating = 0.021557 W
            Gate Leakage = 0.00333823 W
            Runtime Dynamic = 0.0110979 W

          Branch Predictor:
            Area = 0.139613 mm^2
            Peak Dynamic = 0.0270402 W
            Subthreshold Leakage = 0.00802563 W
            Subthreshold Leakage with power gating = 0.00469502 W
            Gate Leakage = 0.000631381 W
            Runtime Dynamic = 0.00411252 W

              Global Predictor:
                Area = 0.0443718 mm^2
                Peak Dynamic = 0.00780437 W
                Subthreshold Leakage = 0.00305314 W
                Subthreshold Leakage with power gating = 0.00178441 W
                Gate Leakage = 0.000231968 W
                Runtime Dynamic = 0.00116106 W

              Local Predictor:
              L1_Local Predictor:
                Area = 0.0264164 mm^2
                Peak Dynamic = 0.00635992 W
                Subthreshold Leakage = 0.00154459 W
                Subthreshold Leakage with power gating = 0.000902955 W
                Gate Leakage = 0.00012879 W
                Runtime Dynamic = 0.00097597 W

              L2_Local Predictor:
                Area = 0.0135618 mm^2
                Peak Dynamic = 0.00324353 W
                Subthreshold Leakage = 0.000782464 W
                Subthreshold Leakage with power gating = 0.000456083 W
                Gate Leakage = 6.76797e-05 W
                Runtime Dynamic = 0.000497845 W

              Chooser:
                Area = 0.0443718 mm^2
                Peak Dynamic = 0.00780437 W
                Subthreshold Leakage = 0.00305314 W
                Subthreshold Leakage with power gating = 0.00178441 W
                Gate Leakage = 0.000231968 W
                Runtime Dynamic = 0.00116106 W

              RAS:
                Area = 0.0108915 mm^2
                Peak Dynamic = 0.0050715 W
                Subthreshold Leakage = 0.000374753 W
                Subthreshold Leakage with power gating = 0.000223242 W
                Gate Leakage = 3.86548e-05 W
                Runtime Dynamic = 0.000814429 W

          Instruction Buffer:
            Area = 0.00619634 mm^2
            Peak Dynamic = 0.0429076 W
            Subthreshold Leakage = 0.000247453 W
            Subthreshold Leakage with power gating = 0.000138425 W
            Gate Leakage = 2.64138e-05 W
            Runtime Dynamic = 0.0181507 W

          Instruction Decoder:
            Area = 0.928993 mm^2
            Peak Dynamic = 0.286975 W
            Subthreshold Leakage = 0.178009 W
            Subthreshold Leakage with power gating = 0.080104 W
            Gate Leakage = 0.0185411 W
            Runtime Dynamic = 0.182093 W

      Renaming Unit:
        Area = 0.241898 mm^2
        Peak Dynamic = 1.48759 W
        Subthreshold Leakage = 0.0231106 W
        Subthreshold Leakage with power gating = 0.0126861 W
        Gate Leakage = 0.00568019 W
        Runtime Dynamic = 0.122261 W

          Int Front End RAT:
            Area = 0.0412007 mm^2
            Peak Dynamic = 0.079976 W
            Subthreshold Leakage = 0.00137358 W
            Subthreshold Leakage with power gating = 0.000782942 W
            Gate Leakage = 0.000185798 W
            Runtime Dynamic = 0.0459063 W

          FP Front End RAT:
            Area = 0.168486 mm^2
            Peak Dynamic = 1.33648 W
            Subthreshold Leakage = 0.0175733 W
            Subthreshold Leakage with power gating = 0.0100168 W
            Gate Leakage = 0.00408109 W
            Runtime Dynamic = 0.0704529 W

          Free List:
            Area = 0.00946771 mm^2
            Peak Dynamic = 0.00429354 W
            Subthreshold Leakage = 0.000113339 W
            Subthreshold Leakage with power gating = 6.37662e-05 W
            Gate Leakage = 1.92322e-05 W
            Runtime Dynamic = 0.0059014 W

      Load Store Unit:
        Area = 7.63089 mm^2
        Peak Dynamic = 1.78649 W
        Subthreshold Leakage = 0.216468 W
        Subthreshold Leakage with power gating = 0.112592 W
        Gate Leakage = 0.0271839 W
        Runtime Dynamic = 0.753112 W

          Data Cache:
            Area = 5.88959 mm^2
            Peak Dynamic = 1.63832 W
            Subthreshold Leakage = 0.194743 W
            Subthreshold Leakage with power gating = 0.100694 W
            Gate Leakage = 0.0225409 W
            Runtime Dynamic = 0.538735 W

          LoadQ:
            Area = 0.083675 mm^2
            Peak Dynamic = 0.0361482 W
            Subthreshold Leakage = 0.00378553 W
            Subthreshold Leakage with power gating = 0.00215775 W
            Gate Leakage = 0.000499133 W
            Runtime Dynamic = 0.0361482 W

          StoreQ:
            Area = 0.322068 mm^2
            Peak Dynamic = 0.0891147 W
            Subthreshold Leakage = 0.0138897 W
            Subthreshold Leakage with power gating = 0.00791712 W
            Gate Leakage = 0.00274976 W
            Runtime Dynamic = 0.178229 W

      Memory Management Unit:
        Area = 0.412258 mm^2
        Peak Dynamic = 0.24598 W
        Subthreshold Leakage = 0.0269355 W
        Subthreshold Leakage with power gating = 0.0148672 W
        Gate Leakage = 0.00541234 W
        Runtime Dynamic = 0.0315011 W

          Itlb:
            Area = 0.301544 mm^2
            Peak Dynamic = 0.169909 W
            Subthreshold Leakage = 0.016628 W
            Subthreshold Leakage with power gating = 0.00947795 W
            Gate Leakage = 0.00327886 W
            Runtime Dynamic = 0 W

          Dtlb:
            Area = 0.087971 mm^2
            Peak Dynamic = 0.031199 W
            Subthreshold Leakage = 0.0062572 W
            Subthreshold Leakage with power gating = 0.0035666 W
            Gate Leakage = 0.000739408 W
            Runtime Dynamic = 0.0315011 W

      Execution Unit:
        Area = 6.15969 mm^2
        Peak Dynamic = 1.46587 W
        Subthreshold Leakage = 0.610815 W
        Subthreshold Leakage with power gating = 0.276988 W
        Gate Leakage = 0.0843041 W
        Runtime Dynamic = 1.47714 W

          Register Files:
            Area = 0.189451 mm^2
            Peak Dynamic = 0.0406337 W
            Subthreshold Leakage = 0.00161932 W
            Subthreshold Leakage with power gating = 0.000808503 W
            Gate Leakage = 0.00019683 W
            Runtime Dynamic = 0.0380541 W

              Integer RF:
                Area = 0.116356 mm^2
                Peak Dynamic = 0.0337941 W
                Subthreshold Leakage = 0.000888822 W
                Subthreshold Leakage with power gating = 0.000427225 W
                Gate Leakage = 0.000113547 W
                Runtime Dynamic = 0.0331536 W

              Floating Point RF:
                Area = 0.0730949 mm^2
                Peak Dynamic = 0.00683969 W
                Subthreshold Leakage = 0.000730494 W
                Subthreshold Leakage with power gating = 0.000381278 W
                Gate Leakage = 8.32836e-05 W
                Runtime Dynamic = 0.00490052 W

          Instruction Scheduler:
            Area = 0.788091 mm^2
            Peak Dynamic = 0.882298 W
            Subthreshold Leakage = 0.0176111 W
            Subthreshold Leakage with power gating = 0.00996617 W
            Gate Leakage = 0.00235744 W
            Runtime Dynamic = 0.512416 W

              Instruction Window:
                Area = 0.270013 mm^2
                Peak Dynamic = 0.23762 W
                Subthreshold Leakage = 0.00886749 W
                Subthreshold Leakage with power gating = 0.00504561 W
                Gate Leakage = 0.00122144 W
                Runtime Dynamic = 0.19841 W

              FP Instruction Window:
                Area = 0.316102 mm^2
                Peak Dynamic = 0.485481 W
                Subthreshold Leakage = 0.00651416 W
                Subthreshold Leakage with power gating = 0.00370421 W
                Gate Leakage = 0.000909172 W
                Runtime Dynamic = 0.201827 W

              ROB:
                Area = 0.201976 mm^2
                Peak Dynamic = 0.159197 W
                Subthreshold Leakage = 0.00222944 W
                Subthreshold Leakage with power gating = 0.00121634 W
                Gate Leakage = 0.00022683 W
                Runtime Dynamic = 0.112179 W

          Integer ALUs (Count: 3 ):
            Area = 0.235435 mm^2
            Peak Dynamic = 0.207625 W
            Subthreshold Leakage = 0.0808216 W
            Subthreshold Leakage with power gating = 0.0363697 W
            Gate Leakage = 0.0110538 W
            Runtime Dynamic = 0.251199 W

          Floating Point Units (FPUs) (Count: 2 ):
            Area = 4.6585 mm^2
            Peak Dynamic = 0.120291 W
            Subthreshold Leakage = 0.3998 W
            Subthreshold Leakage with power gating = 0.17991 W
            Gate Leakage = 0.0546797 W
            Runtime Dynamic = 0.26015 W

          Complex ALUs (Mul/Div) (Count: 1 ):
            Area = 0.235435 mm^2
            Peak Dynamic = 0.0263329 W
            Subthreshold Leakage = 0.0808216 W
            Subthreshold Leakage with power gating = 0.0363697 W
            Gate Leakage = 0.0110538 W
            Runtime Dynamic = 0.158865 W

          Results Broadcast Bus:
            Area Overhead = 0.0300341 mm^2
            Peak Dynamic = 0.162765 W
            Subthreshold Leakage = 0.0260916 W
            Subthreshold Leakage with power gating = 0.0117412 W
            Gate Leakage = 0.00356849 W
            Runtime Dynamic = 0.256457 W

    L2
    Area = 3.08398 mm^2
    Peak Dynamic = 0.0193756 W
    Subthreshold Leakage = 0.237347 W
    Subthreshold Leakage with power gating = 0.12756 W
    Gate Leakage = 0.0118838 W
    Runtime Dynamic = 0.0044051 W

*****************************************************************************************
Core:
      Area = 26.7488 mm^2
      Peak Dynamic = 8.11255 W
      Subthreshold Leakage = 2.23476 W
      Subthreshold Leakage with power gating = 1.06503 W
      Gate Leakage = 0.285988 W
      Runtime Dynamic = 2.4449 W

      Instruction Fetch Unit:
        Area = 4.82339 mm^2
        Peak Dynamic = 3.26792 W
        Subthreshold Leakage = 0.365421 W
        Subthreshold Leakage with power gating = 0.180734 W
        Gate Leakage = 0.0483102 W
        Runtime Dynamic = 0.20239 W

          Instruction Cache:
            Area = 2.93588 mm^2
            Peak Dynamic = 2.7632 W
            Subthreshold Leakage = 0.138238 W
            Subthreshold Leakage with power gating = 0.0724173 W
            Gate Leakage = 0.024379 W
            Runtime Dynamic = 0 W

          Branch Target Buffer:
            Area = 0.789969 mm^2
            Peak Dynamic = 0.0809601 W
            Subthreshold Leakage = 0.0368499 W
            Subthreshold Leakage with power gating = 0.021557 W
            Gate Leakage = 0.00333823 W
            Runtime Dynamic = 0.0102685 W

          Branch Predictor:
            Area = 0.139613 mm^2
            Peak Dynamic = 0.0270402 W
            Subthreshold Leakage = 0.00802563 W
            Subthreshold Leakage with power gating = 0.00469502 W
            Gate Leakage = 0.000631381 W
            Runtime Dynamic = 0.00382135 W

              Global Predictor:
                Area = 0.0443718 mm^2
                Peak Dynamic = 0.00780437 W
                Subthreshold Leakage = 0.00305314 W
                Subthreshold Leakage with power gating = 0.00178441 W
                Gate Leakage = 0.000231968 W
                Runtime Dynamic = 0.00107553 W

              Local Predictor:
              L1_Local Predictor:
                Area = 0.0264164 mm^2
                Peak Dynamic = 0.00635992 W
                Subthreshold Leakage = 0.00154459 W
                Subthreshold Leakage with power gating = 0.000902955 W
                Gate Leakage = 0.00012879 W
                Runtime Dynamic = 0.000904445 W

              L2_Local Predictor:
                Area = 0.0135618 mm^2
                Peak Dynamic = 0.00324353 W
                Subthreshold Leakage = 0.000782464 W
                Subthreshold Leakage with power gating = 0.000456083 W
                Gate Leakage = 6.76797e-05 W
                Runtime Dynamic = 0.000461361 W

              Chooser:
                Area = 0.0443718 mm^2
                Peak Dynamic = 0.00780437 W
                Subthreshold Leakage = 0.00305314 W
                Subthreshold Leakage with power gating = 0.00178441 W
                Gate Leakage = 0.000231968 W
                Runtime Dynamic = 0.00107553 W

              RAS:
                Area = 0.0108915 mm^2
                Peak Dynamic = 0.0050715 W
                Subthreshold Leakage = 0.000374753 W
                Subthreshold Leakage with power gating = 0.000223242 W
                Gate Leakage = 3.86548e-05 W
                Runtime Dynamic = 0.000765849 W

          Instruction Buffer:
            Area = 0.00619634 mm^2
            Peak Dynamic = 0.0429076 W
            Subthreshold Leakage = 0.000247453 W
            Subthreshold Leakage with power gating = 0.000138425 W
            Gate Leakage = 2.64138e-05 W
            Runtime Dynamic = 0.017068 W

          Instruction Decoder:
            Area = 0.928993 mm^2
            Peak Dynamic = 0.286975 W
            Subthreshold Leakage = 0.178009 W
            Subthreshold Leakage with power gating = 0.080104 W
            Gate Leakage = 0.0185411 W
            Runtime Dynamic = 0.171232 W

      Renaming Unit:
        Area = 0.241898 mm^2
        Peak Dynamic = 1.48759 W
        Subthreshold Leakage = 0.0231106 W
        Subthreshold Leakage with power gating = 0.0126861 W
        Gate Leakage = 0.00568019 W
        Runtime Dynamic = 0.111173 W

          Int Front End RAT:
            Area = 0.0412007 mm^2
            Peak Dynamic = 0.079976 W
            Subthreshold Leakage = 0.00137358 W
            Subthreshold Leakage with power gating = 0.000782942 W
            Gate Leakage = 0.000185798 W
            Runtime Dynamic = 0.0433266 W

          FP Front End RAT:
            Area = 0.168486 mm^2
            Peak Dynamic = 1.33648 W
            Subthreshold Leakage = 0.0175733 W
            Subthreshold Leakage with power gating = 0.0100168 W
            Gate Leakage = 0.00408109 W
            Runtime Dynamic = 0.0623221 W

          Free List:
            Area = 0.00946771 mm^2
            Peak Dynamic = 0.00429354 W
            Subthreshold Leakage = 0.000113339 W
            Subthreshold Leakage with power gating = 6.37662e-05 W
            Gate Leakage = 1.92322e-05 W
            Runtime Dynamic = 0.00552415 W

      Load Store Unit:
        Area = 7.63089 mm^2
        Peak Dynamic = 1.67656 W
        Subthreshold Leakage = 0.216468 W
        Subthreshold Leakage with power gating = 0.112592 W
        Gate Leakage = 0.0271839 W
        Runtime Dynamic = 0.685571 W

          Data Cache:
            Area = 5.88959 mm^2
            Peak Dynamic = 1.54133 W
            Subthreshold Leakage = 0.194743 W
            Subthreshold Leakage with power gating = 0.100694 W
            Gate Leakage = 0.0225409 W
            Runtime Dynamic = 0.489917 W

          LoadQ:
            Area = 0.083675 mm^2
            Peak Dynamic = 0.0329911 W
            Subthreshold Leakage = 0.00378553 W
            Subthreshold Leakage with power gating = 0.00215775 W
            Gate Leakage = 0.000499133 W
            Runtime Dynamic = 0.0329911 W

          StoreQ:
            Area = 0.322068 mm^2
            Peak Dynamic = 0.0813315 W
            Subthreshold Leakage = 0.0138897 W
            Subthreshold Leakage with power gating = 0.00791712 W
            Gate Leakage = 0.00274976 W
            Runtime Dynamic = 0.162663 W

      Memory Management Unit:
        Area = 0.412258 mm^2
        Peak Dynamic = 0.242255 W
        Subthreshold Leakage = 0.0269355 W
        Subthreshold Leakage with power gating = 0.0148672 W
        Gate Leakage = 0.00541234 W
        Runtime Dynamic = 0.0287187 W

          Itlb:
            Area = 0.301544 mm^2
            Peak Dynamic = 0.169909 W
            Subthreshold Leakage = 0.016628 W
            Subthreshold Leakage with power gating = 0.00947795 W
            Gate Leakage = 0.00327886 W
            Runtime Dynamic = 0 W

          Dtlb:
            Area = 0.087971 mm^2
            Peak Dynamic = 0.0284742 W
            Subthreshold Leakage = 0.0062572 W
            Subthreshold Leakage with power gating = 0.0035666 W
            Gate Leakage = 0.000739408 W
            Runtime Dynamic = 0.0287187 W

      Execution Unit:
        Area = 6.15969 mm^2
        Peak Dynamic = 1.42253 W
        Subthreshold Leakage = 0.610815 W
        Subthreshold Leakage with power gating = 0.276988 W
        Gate Leakage = 0.0843041 W
        Runtime Dynamic = 1.41085 W

          Register Files:
            Area = 0.189451 mm^2
            Peak Dynamic = 0.0377188 W
            Subthreshold Leakage = 0.00161932 W
            Subthreshold Leakage with power gating = 0.000808503 W
            Gate Leakage = 0.00019683 W
            Runtime Dynamic = 0.0357842 W

              Integer RF:
                Area = 0.116356 mm^2
                Peak Dynamic = 0.0316684 W
                Subthreshold Leakage = 0.000888822 W
                Subthreshold Leakage with power gating = 0.000427225 W
                Gate Leakage = 0.000113547 W
                Runtime Dynamic = 0.031176 W

              Floating Point RF:
                Area = 0.0730949 mm^2
                Peak Dynamic = 0.00605036 W
                Subthreshold Leakage = 0.000730494 W
                Subthreshold Leakage with power gating = 0.000381278 W
                Gate Leakage = 8.32836e-05 W
                Runtime Dynamic = 0.00460821 W

          Instruction Scheduler:
            Area = 0.788091 mm^2
            Peak Dynamic = 0.882298 W
            Subthreshold Leakage = 0.0176111 W
            Subthreshold Leakage with power gating = 0.00996617 W
            Gate Leakage = 0.00235744 W
            Runtime Dynamic = 0.481971 W

              Instruction Window:
                Area = 0.270013 mm^2
                Peak Dynamic = 0.23762 W
                Subthreshold Leakage = 0.00886749 W
                Subthreshold Leakage with power gating = 0.00504561 W
                Gate Leakage = 0.00122144 W
                Runtime Dynamic = 0.186575 W

              FP Instruction Window:
                Area = 0.316102 mm^2
                Peak Dynamic = 0.485481 W
                Subthreshold Leakage = 0.00651416 W
                Subthreshold Leakage with power gating = 0.00370421 W
                Gate Leakage = 0.000909172 W
                Runtime Dynamic = 0.189788 W

              ROB:
                Area = 0.201976 mm^2
                Peak Dynamic = 0.159197 W
                Subthreshold Leakage = 0.00222944 W
                Subthreshold Leakage with power gating = 0.00121634 W
                Gate Leakage = 0.00022683 W
                Runtime Dynamic = 0.105609 W

          Integer ALUs (Count: 3 ):
            Area = 0.235435 mm^2
            Peak Dynamic = 0.19629 W
            Subthreshold Leakage = 0.0808216 W
            Subthreshold Leakage with power gating = 0.0363697 W
            Gate Leakage = 0.0110538 W
            Runtime Dynamic = 0.24188 W

          Floating Point Units (FPUs) (Count: 2 ):
            Area = 4.6585 mm^2
            Peak Dynamic = 0.106409 W
            Subthreshold Leakage = 0.3998 W
            Subthreshold Leakage with power gating = 0.17991 W
            Gate Leakage = 0.0546797 W
            Runtime Dynamic = 0.254493 W

          Complex ALUs (Mul/Div) (Count: 1 ):
            Area = 0.235435 mm^2
            Peak Dynamic = 0.0230802 W
            Subthreshold Leakage = 0.0808216 W
            Subthreshold Leakage with power gating = 0.0363697 W
            Gate Leakage = 0.0110538 W
            Runtime Dynamic = 0.156628 W

          Results Broadcast Bus:
            Area Overhead = 0.0300341 mm^2
            Peak Dynamic = 0.152227 W
            Subthreshold Leakage = 0.0260916 W
            Subthreshold Leakage with power gating = 0.0117412 W
            Gate Leakage = 0.00356849 W
            Runtime Dynamic = 0.240098 W

    L2
    Area = 3.08398 mm^2
    Peak Dynamic = 0.0156907 W
    Subthreshold Leakage = 0.237347 W
    Subthreshold Leakage with power gating = 0.12756 W
    Gate Leakage = 0.0118838 W
    Runtime Dynamic = 0.00387345 W

*****************************************************************************************
Core:
      Area = 26.7488 mm^2
      Peak Dynamic = 8.11057 W
      Subthreshold Leakage = 2.23476 W
      Subthreshold Leakage with power gating = 1.06503 W
      Gate Leakage = 0.285988 W
      Runtime Dynamic = 2.43884 W

      Instruction Fetch Unit:
        Area = 4.82339 mm^2
        Peak Dynamic = 3.26792 W
        Subthreshold Leakage = 0.365421 W
        Subthreshold Leakage with power gating = 0.180734 W
        Gate Leakage = 0.0483102 W
        Runtime Dynamic = 0.201677 W

          Instruction Cache:
            Area = 2.93588 mm^2
            Peak Dynamic = 2.7632 W
            Subthreshold Leakage = 0.138238 W
            Subthreshold Leakage with power gating = 0.0724173 W
            Gate Leakage = 0.024379 W
            Runtime Dynamic = 0 W

          Branch Target Buffer:
            Area = 0.789969 mm^2
            Peak Dynamic = 0.0809601 W
            Subthreshold Leakage = 0.0368499 W
            Subthreshold Leakage with power gating = 0.021557 W
            Gate Leakage = 0.00333823 W
            Runtime Dynamic = 0.0101929 W

          Branch Predictor:
            Area = 0.139613 mm^2
            Peak Dynamic = 0.0270402 W
            Subthreshold Leakage = 0.00802563 W
            Subthreshold Leakage with power gating = 0.00469502 W
            Gate Leakage = 0.000631381 W
            Runtime Dynamic = 0.00379787 W

              Global Predictor:
                Area = 0.0443718 mm^2
                Peak Dynamic = 0.00780437 W
                Subthreshold Leakage = 0.00305314 W
                Subthreshold Leakage with power gating = 0.00178441 W
                Gate Leakage = 0.000231968 W
                Runtime Dynamic = 0.00106809 W

              Local Predictor:
              L1_Local Predictor:
                Area = 0.0264164 mm^2
                Peak Dynamic = 0.00635992 W
                Subthreshold Leakage = 0.00154459 W
                Subthreshold Leakage with power gating = 0.000902955 W
                Gate Leakage = 0.00012879 W
                Runtime Dynamic = 0.000898336 W

              L2_Local Predictor:
                Area = 0.0135618 mm^2
                Peak Dynamic = 0.00324353 W
                Subthreshold Leakage = 0.000782464 W
                Subthreshold Leakage with power gating = 0.000456083 W
                Gate Leakage = 6.76797e-05 W
                Runtime Dynamic = 0.000458245 W

              Chooser:
                Area = 0.0443718 mm^2
                Peak Dynamic = 0.00780437 W
                Subthreshold Leakage = 0.00305314 W
                Subthreshold Leakage with power gating = 0.00178441 W
                Gate Leakage = 0.000231968 W
                Runtime Dynamic = 0.00106809 W

              RAS:
                Area = 0.0108915 mm^2
                Peak Dynamic = 0.0050715 W
                Subthreshold Leakage = 0.000374753 W
                Subthreshold Leakage with power gating = 0.000223242 W
                Gate Leakage = 3.86548e-05 W
                Runtime Dynamic = 0.000763355 W

          Instruction Buffer:
            Area = 0.00619634 mm^2
            Peak Dynamic = 0.0429076 W
            Subthreshold Leakage = 0.000247453 W
            Subthreshold Leakage with power gating = 0.000138425 W
            Gate Leakage = 2.64138e-05 W
            Runtime Dynamic = 0.0170124 W

          Instruction Decoder:
            Area = 0.928993 mm^2
            Peak Dynamic = 0.286975 W
            Subthreshold Leakage = 0.178009 W
            Subthreshold Leakage with power gating = 0.080104 W
            Gate Leakage = 0.0185411 W
            Runtime Dynamic = 0.170674 W

      Renaming Unit:
        Area = 0.241898 mm^2
        Peak Dynamic = 1.48759 W
        Subthreshold Leakage = 0.0231106 W
        Subthreshold Leakage with power gating = 0.0126861 W
        Gate Leakage = 0.00568019 W
        Runtime Dynamic = 0.108388 W

          Int Front End RAT:
            Area = 0.0412007 mm^2
            Peak Dynamic = 0.079976 W
            Subthreshold Leakage = 0.00137358 W
            Subthreshold Leakage with power gating = 0.000782942 W
            Gate Leakage = 0.000185798 W
            Runtime Dynamic = 0.0432704 W

          FP Front End RAT:
            Area = 0.168486 mm^2
            Peak Dynamic = 1.33648 W
            Subthreshold Leakage = 0.0175733 W
            Subthreshold Leakage with power gating = 0.0100168 W
            Gate Leakage = 0.00408109 W
            Runtime Dynamic = 0.0596277 W

          Free List:
            Area = 0.00946771 mm^2
            Peak Dynamic = 0.00429354 W
            Subthreshold Leakage = 0.000113339 W
            Subthreshold Leakage with power gating = 6.37662e-05 W
            Gate Leakage = 1.92322e-05 W
            Runtime Dynamic = 0.00549015 W

      Load Store Unit:
        Area = 7.63089 mm^2
        Peak Dynamic = 1.68145 W
        Subthreshold Leakage = 0.216468 W
        Subthreshold Leakage with power gating = 0.112592 W
        Gate Leakage = 0.0271839 W
        Runtime Dynamic = 0.688557 W

          Data Cache:
            Area = 5.88959 mm^2
            Peak Dynamic = 1.54565 W
            Subthreshold Leakage = 0.194743 W
            Subthreshold Leakage with power gating = 0.100694 W
            Gate Leakage = 0.0225409 W
            Runtime Dynamic = 0.492068 W

          LoadQ:
            Area = 0.083675 mm^2
            Peak Dynamic = 0.0331317 W
            Subthreshold Leakage = 0.00378553 W
            Subthreshold Leakage with power gating = 0.00215775 W
            Gate Leakage = 0.000499133 W
            Runtime Dynamic = 0.0331317 W

          StoreQ:
            Area = 0.322068 mm^2
            Peak Dynamic = 0.0816782 W
            Subthreshold Leakage = 0.0138897 W
            Subthreshold Leakage with power gating = 0.00791712 W
            Gate Leakage = 0.00274976 W
            Runtime Dynamic = 0.163357 W

      Memory Management Unit:
        Area = 0.412258 mm^2
        Peak Dynamic = 0.242421 W
        Subthreshold Leakage = 0.0269355 W
        Subthreshold Leakage with power gating = 0.0148672 W
        Gate Leakage = 0.00541234 W
        Runtime Dynamic = 0.0288367 W

          Itlb:
            Area = 0.301544 mm^2
            Peak Dynamic = 0.169909 W
            Subthreshold Leakage = 0.016628 W
            Subthreshold Leakage with power gating = 0.00947795 W
            Gate Leakage = 0.00327886 W
            Runtime Dynamic = 0 W

          Dtlb:
            Area = 0.087971 mm^2
            Peak Dynamic = 0.0285955 W
            Subthreshold Leakage = 0.0062572 W
            Subthreshold Leakage with power gating = 0.0035666 W
            Gate Leakage = 0.000739408 W
            Runtime Dynamic = 0.0288367 W

      Execution Unit:
        Area = 6.15969 mm^2
        Peak Dynamic = 1.41571 W
        Subthreshold Leakage = 0.610815 W
        Subthreshold Leakage with power gating = 0.276988 W
        Gate Leakage = 0.0843041 W
        Runtime Dynamic = 1.40515 W

          Register Files:
            Area = 0.189451 mm^2
            Peak Dynamic = 0.0373099 W
            Subthreshold Leakage = 0.00161932 W
            Subthreshold Leakage with power gating = 0.000808503 W
            Gate Leakage = 0.00019683 W
            Runtime Dynamic = 0.0356677 W

              Integer RF:
                Area = 0.116356 mm^2
                Peak Dynamic = 0.0315212 W
                Subthreshold Leakage = 0.000888822 W
                Subthreshold Leakage with power gating = 0.000427225 W
                Gate Leakage = 0.000113547 W
                Runtime Dynamic = 0.0310745 W

              Floating Point RF:
                Area = 0.0730949 mm^2
                Peak Dynamic = 0.00578879 W
                Subthreshold Leakage = 0.000730494 W
                Subthreshold Leakage with power gating = 0.000381278 W
                Gate Leakage = 8.32836e-05 W
                Runtime Dynamic = 0.00459321 W

          Instruction Scheduler:
            Area = 0.788091 mm^2
            Peak Dynamic = 0.882298 W
            Subthreshold Leakage = 0.0176111 W
            Subthreshold Leakage with power gating = 0.00996617 W
            Gate Leakage = 0.00235744 W
            Runtime Dynamic = 0.480425 W

              Instruction Window:
                Area = 0.270013 mm^2
                Peak Dynamic = 0.23762 W
                Subthreshold Leakage = 0.00886749 W
                Subthreshold Leakage with power gating = 0.00504561 W
                Gate Leakage = 0.00122144 W
                Runtime Dynamic = 0.185967 W

              FP Instruction Window:
                Area = 0.316102 mm^2
                Peak Dynamic = 0.485481 W
                Subthreshold Leakage = 0.00651416 W
                Subthreshold Leakage with power gating = 0.00370421 W
                Gate Leakage = 0.000909172 W
                Runtime Dynamic = 0.18917 W

              ROB:
                Area = 0.201976 mm^2
                Peak Dynamic = 0.159197 W
                Subthreshold Leakage = 0.00222944 W
                Subthreshold Leakage with power gating = 0.00121634 W
                Gate Leakage = 0.00022683 W
                Runtime Dynamic = 0.105288 W

          Integer ALUs (Count: 3 ):
            Area = 0.235435 mm^2
            Peak Dynamic = 0.196316 W
            Subthreshold Leakage = 0.0808216 W
            Subthreshold Leakage with power gating = 0.0363697 W
            Gate Leakage = 0.0110538 W
            Runtime Dynamic = 0.242025 W

          Floating Point Units (FPUs) (Count: 2 ):
            Area = 4.6585 mm^2
            Peak Dynamic = 0.101809 W
            Subthreshold Leakage = 0.3998 W
            Subthreshold Leakage with power gating = 0.17991 W
            Gate Leakage = 0.0546797 W
            Runtime Dynamic = 0.252619 W

          Complex ALUs (Mul/Div) (Count: 1 ):
            Area = 0.235435 mm^2
            Peak Dynamic = 0.0221031 W
            Subthreshold Leakage = 0.0808216 W
            Subthreshold Leakage with power gating = 0.0363697 W
            Gate Leakage = 0.0110538 W
            Runtime Dynamic = 0.155956 W

          Results Broadcast Bus:
            Area Overhead = 0.0300341 mm^2
            Peak Dynamic = 0.151356 W
            Subthreshold Leakage = 0.0260916 W
            Subthreshold Leakage with power gating = 0.0117412 W
            Gate Leakage = 0.00356849 W
            Runtime Dynamic = 0.238456 W

    L2
    Area = 3.08398 mm^2
    Peak Dynamic = 0.0154674 W
    Subthreshold Leakage = 0.237347 W
    Subthreshold Leakage with power gating = 0.12756 W
    Gate Leakage = 0.0118838 W
    Runtime Dynamic = 0.00389794 W

*****************************************************************************************
      L3
      Area = 62.2194 mm^2
      Peak Dynamic = 0.0484086 W
      Subthreshold Leakage = 2.73753 W
      Subthreshold Leakage with power gating = 1.55288 W
      Gate Leakage = 0.0404867 W
      Runtime Dynamic = 0.0323031 W

*****************************************************************************************
BUSES
      Area = 0.606171 mm^2
      Peak Dynamic = 0 W
      Subthreshold Leakage = 0.0271884 W
      Subthreshold Leakage with power gating = 0.0122348 W
      Gate Leakage = 0.00540644 W
      Runtime Dynamic = 0 W

      Bus: 
        Area = 0.606171 mm^2
        Peak Dynamic = 0 W
        Subthreshold Leakage = 0.0271884 W
        Subthreshold Leakage with power gating = 0.0122348 W
        Gate Leakage = 0.00540644 W
        Runtime Dynamic = 0 W

*****************************************************************************************
