McPAT (version 1.0 of Aug, 2013) is computing the target processor...
 
Warning: ReorderBuffer array structure cannot satisfy latency constraint.

McPAT (version 1.0 of Aug, 2013) results  (current print level is 5)
*****************************************************************************************
  Technology 45 nm
  Using Long Channel Devices When Appropriate
  Interconnect metal projection= aggressive interconnect technology projection
  Core clock Rate(MHz) 2800

*****************************************************************************************
Processor: 
  Area = 176.758 mm^2
  Peak Power = 67.7987 W
  Total Leakage = 13.2733 W
  Peak Dynamic = 54.5254 W
  Subthreshold Leakage = 12.0371 W
  Subthreshold Leakage with power gating = 6.1592 W
  Gate Leakage = 1.23617 W
  Runtime Dynamic = 11.4272 W

  Total Cores: 4 cores 
  Device Type= ITRS high performance device type
    Area = 113.865 mm^2
    Peak Dynamic = 54.5179 W
    Subthreshold Leakage = 9.26937 W
    Subthreshold Leakage with power gating = 4.42314 W
    Gate Leakage = 1.18967 W
    Runtime Dynamic = 11.4226 W

  Total L3s: 
  Device Type= ITRS high performance device type
    Area = 62.2194 mm^2
    Peak Dynamic = 0.00753816 W
    Subthreshold Leakage = 2.73753 W
    Subthreshold Leakage with power gating = 1.55288 W
    Gate Leakage = 0.0404867 W
    Runtime Dynamic = 0.00465682 W

  Total NoCs (Network/Bus): 
  Device Type= ITRS high performance device type
    Area = 0.673906 mm^2
    Peak Dynamic = 0 W
    Subthreshold Leakage = 0.0302265 W
    Subthreshold Leakage with power gating = 0.0136019 W
    Gate Leakage = 0.00601057 W
    Runtime Dynamic = 0 W

*****************************************************************************************
Core:
      Area = 33.6182 mm^2
      Peak Dynamic = 38.5029 W
      Subthreshold Leakage = 2.56509 W
      Subthreshold Leakage with power gating = 1.22806 W
      Gate Leakage = 0.331709 W
      Runtime Dynamic = 7.80683 W

      Instruction Fetch Unit:
        Area = 5.79327 mm^2
        Peak Dynamic = 5.13051 W
        Subthreshold Leakage = 0.369797 W
        Subthreshold Leakage with power gating = 0.182731 W
        Gate Leakage = 0.0497222 W
        Runtime Dynamic = 0.24065 W

          Instruction Cache:
            Area = 2.93588 mm^2
            Peak Dynamic = 3.32528 W
            Subthreshold Leakage = 0.138238 W
            Subthreshold Leakage with power gating = 0.0724173 W
            Gate Leakage = 0.024379 W
            Runtime Dynamic = 0 W

          Branch Target Buffer:
            Area = 0.789969 mm^2
            Peak Dynamic = 0.14168 W
            Subthreshold Leakage = 0.0368499 W
            Subthreshold Leakage with power gating = 0.021557 W
            Gate Leakage = 0.00333823 W
            Runtime Dynamic = 0.0116854 W

          Branch Predictor:
            Area = 0.139613 mm^2
            Peak Dynamic = 0.0473203 W
            Subthreshold Leakage = 0.00802563 W
            Subthreshold Leakage with power gating = 0.00469502 W
            Gate Leakage = 0.000631381 W
            Runtime Dynamic = 0.00452312 W

              Global Predictor:
                Area = 0.0443718 mm^2
                Peak Dynamic = 0.0136577 W
                Subthreshold Leakage = 0.00305314 W
                Subthreshold Leakage with power gating = 0.00178441 W
                Gate Leakage = 0.000231968 W
                Runtime Dynamic = 0.00131106 W

              Local Predictor:
              L1_Local Predictor:
                Area = 0.0264164 mm^2
                Peak Dynamic = 0.0111299 W
                Subthreshold Leakage = 0.00154459 W
                Subthreshold Leakage with power gating = 0.000902955 W
                Gate Leakage = 0.00012879 W
                Runtime Dynamic = 0.0011287 W

              L2_Local Predictor:
                Area = 0.0135618 mm^2
                Peak Dynamic = 0.00567618 W
                Subthreshold Leakage = 0.000782464 W
                Subthreshold Leakage with power gating = 0.000456083 W
                Gate Leakage = 6.76797e-05 W
                Runtime Dynamic = 0.000575843 W

              Chooser:
                Area = 0.0443718 mm^2
                Peak Dynamic = 0.0136577 W
                Subthreshold Leakage = 0.00305314 W
                Subthreshold Leakage with power gating = 0.00178441 W
                Gate Leakage = 0.000231968 W
                Runtime Dynamic = 0.00131106 W

              RAS:
                Area = 0.0108915 mm^2
                Peak Dynamic = 0.00887513 W
                Subthreshold Leakage = 0.000374753 W
                Subthreshold Leakage with power gating = 0.000223242 W
                Gate Leakage = 3.86548e-05 W
                Runtime Dynamic = 0.000772306 W

          Instruction Buffer:
            Area = 0.0245435 mm^2
            Peak Dynamic = 0.451666 W
            Subthreshold Leakage = 0.00061039 W
            Subthreshold Leakage with power gating = 0.000328759 W
            Gate Leakage = 5.69632e-05 W
            Runtime Dynamic = 0.0517659 W

          Instruction Decoder:
            Area = 1.85799 mm^2
            Peak Dynamic = 1.00441 W
            Subthreshold Leakage = 0.178009 W
            Subthreshold Leakage with power gating = 0.080104 W
            Gate Leakage = 0.0185411 W
            Runtime Dynamic = 0.172675 W

      Renaming Unit:
        Area = 0.393146 mm^2
        Peak Dynamic = 3.40509 W
        Subthreshold Leakage = 0.0286873 W
        Subthreshold Leakage with power gating = 0.015396 W
        Gate Leakage = 0.00723822 W
        Runtime Dynamic = 0.236454 W

          Int Front End RAT:
            Area = 0.11475 mm^2
            Peak Dynamic = 0.646375 W
            Subthreshold Leakage = 0.00245908 W
            Subthreshold Leakage with power gating = 0.00140167 W
            Gate Leakage = 0.000319525 W
            Runtime Dynamic = 0.103363 W

          FP Front End RAT:
            Area = 0.168486 mm^2
            Peak Dynamic = 2.47986 W
            Subthreshold Leakage = 0.0175733 W
            Subthreshold Leakage with power gating = 0.0100168 W
            Gate Leakage = 0.00408109 W
            Runtime Dynamic = 0.11515 W

          Free List:
            Area = 0.0646288 mm^2
            Peak Dynamic = 0.0459711 W
            Subthreshold Leakage = 0.000590885 W
            Subthreshold Leakage with power gating = 0.000348707 W
            Gate Leakage = 6.20754e-05 W
            Runtime Dynamic = 0.017941 W

      Load Store Unit:
        Area = 7.65343 mm^2
        Peak Dynamic = 2.30607 W
        Subthreshold Leakage = 0.220482 W
        Subthreshold Leakage with power gating = 0.114398 W
        Gate Leakage = 0.0285653 W
        Runtime Dynamic = 0.799737 W

          Data Cache:
            Area = 5.88959 mm^2
            Peak Dynamic = 2.12175 W
            Subthreshold Leakage = 0.194743 W
            Subthreshold Leakage with power gating = 0.100694 W
            Gate Leakage = 0.0225409 W
            Runtime Dynamic = 0.568459 W

          LoadQ:
            Area = 0.083675 mm^2
            Peak Dynamic = 0.0389979 W
            Subthreshold Leakage = 0.00378553 W
            Subthreshold Leakage with power gating = 0.00215775 W
            Gate Leakage = 0.000499133 W
            Runtime Dynamic = 0.0389979 W

          StoreQ:
            Area = 0.322068 mm^2
            Peak Dynamic = 0.0961399 W
            Subthreshold Leakage = 0.0138897 W
            Subthreshold Leakage with power gating = 0.00791712 W
            Gate Leakage = 0.00274976 W
            Runtime Dynamic = 0.19228 W

      Memory Management Unit:
        Area = 0.434796 mm^2
        Peak Dynamic = 0.379169 W
        Subthreshold Leakage = 0.0309492 W
        Subthreshold Leakage with power gating = 0.0166734 W
        Gate Leakage = 0.0067938 W
        Runtime Dynamic = 0.0337504 W

          Itlb:
            Area = 0.301544 mm^2
            Peak Dynamic = 0.204472 W
            Subthreshold Leakage = 0.016628 W
            Subthreshold Leakage with power gating = 0.00947795 W
            Gate Leakage = 0.00327886 W
            Runtime Dynamic = 0 W

          Dtlb:
            Area = 0.087971 mm^2
            Peak Dynamic = 0.0336586 W
            Subthreshold Leakage = 0.0062572 W
            Subthreshold Leakage with power gating = 0.0035666 W
            Gate Leakage = 0.000739408 W
            Runtime Dynamic = 0.0337504 W

      Execution Unit:
        Area = 10.5419 mm^2
        Peak Dynamic = 27.2756 W
        Subthreshold Leakage = 0.826422 W
        Subthreshold Leakage with power gating = 0.378115 W
        Gate Leakage = 0.123251 W
        Runtime Dynamic = 6.49537 W

          Register Files:
            Area = 0.583006 mm^2
            Peak Dynamic = 0.0982987 W
            Subthreshold Leakage = 0.00407453 W
            Subthreshold Leakage with power gating = 0.00196113 W
            Gate Leakage = 0.000518923 W
            Runtime Dynamic = 0.061283 W

              Integer RF:
                Area = 0.362766 mm^2
                Peak Dynamic = 0.065149 W
                Subthreshold Leakage = 0.00246823 W
                Subthreshold Leakage with power gating = 0.00115516 W
                Gate Leakage = 0.000324933 W
                Runtime Dynamic = 0.0539775 W

              Floating Point RF:
                Area = 0.22024 mm^2
                Peak Dynamic = 0.0331497 W
                Subthreshold Leakage = 0.0016063 W
                Subthreshold Leakage with power gating = 0.00080597 W
                Gate Leakage = 0.00019399 W
                Runtime Dynamic = 0.00730554 W

          Instruction Scheduler:
            Area = 4.49921 mm^2
            Peak Dynamic = 26.5944 W
            Subthreshold Leakage = 0.130589 W
            Subthreshold Leakage with power gating = 0.0648622 W
            Gate Leakage = 0.0264491 W
            Runtime Dynamic = 5.25993 W

              Instruction Window:
                Area = 1.00992 mm^2
                Peak Dynamic = 1.54952 W
                Subthreshold Leakage = 0.0321549 W
                Subthreshold Leakage with power gating = 0.0183106 W
                Gate Leakage = 0.00440927 W
                Runtime Dynamic = 0.348342 W

              FP Instruction Window:
                Area = 0.328065 mm^2
                Peak Dynamic = 0.902386 W
                Subthreshold Leakage = 0.00683352 W
                Subthreshold Leakage with power gating = 0.0038774 W
                Gate Leakage = 0.000961245 W
                Runtime Dynamic = 0.201346 W

              ROB:
                Area = 3.16123 mm^2
                Peak Dynamic = 24.1425 W
                Subthreshold Leakage = 0.0916003 W
                Subthreshold Leakage with power gating = 0.0426742 W
                Gate Leakage = 0.0210786 W
                Runtime Dynamic = 4.71025 W

          Integer ALUs (Count: 6 ):
            Area = 0.47087 mm^2
            Peak Dynamic = 0.168286 W
            Subthreshold Leakage = 0.161643 W
            Subthreshold Leakage with power gating = 0.0727395 W
            Gate Leakage = 0.0221076 W
            Runtime Dynamic = 0.23447 W

          Floating Point Units (FPUs) (Count: 2 ):
            Area = 4.6585 mm^2
            Peak Dynamic = 0.170722 W
            Subthreshold Leakage = 0.3998 W
            Subthreshold Leakage with power gating = 0.17991 W
            Gate Leakage = 0.0546797 W
            Runtime Dynamic = 0.286691 W

          Complex ALUs (Mul/Div) (Count: 1 ):
            Area = 0.235435 mm^2
            Peak Dynamic = 0.0318193 W
            Subthreshold Leakage = 0.0808216 W
            Subthreshold Leakage with power gating = 0.0363697 W
            Gate Leakage = 0.0110538 W
            Runtime Dynamic = 0.166019 W

          Results Broadcast Bus:
            Area Overhead = 0.0496447 mm^2
            Peak Dynamic = 0.188928 W
            Subthreshold Leakage = 0.0414305 W
            Subthreshold Leakage with power gating = 0.0186437 W
            Gate Leakage = 0.00566636 W
            Runtime Dynamic = 0.486967 W

    L2
    Area = 4.40487 mm^2
    Peak Dynamic = 0.00644493 W
    Subthreshold Leakage = 0.334089 W
    Subthreshold Leakage with power gating = 0.181146 W
    Gate Leakage = 0.0129247 W
    Runtime Dynamic = 0.000313691 W

*****************************************************************************************
Core:
      Area = 26.7488 mm^2
      Peak Dynamic = 5.32714 W
      Subthreshold Leakage = 2.23476 W
      Subthreshold Leakage with power gating = 1.06503 W
      Gate Leakage = 0.285988 W
      Runtime Dynamic = 1.20086 W

      Instruction Fetch Unit:
        Area = 4.82339 mm^2
        Peak Dynamic = 1.61773 W
        Subthreshold Leakage = 0.365421 W
        Subthreshold Leakage with power gating = 0.180734 W
        Gate Leakage = 0.0483102 W
        Runtime Dynamic = 0.0713998 W

          Instruction Cache:
            Area = 2.93588 mm^2
            Peak Dynamic = 1.15198 W
            Subthreshold Leakage = 0.138238 W
            Subthreshold Leakage with power gating = 0.0724173 W
            Gate Leakage = 0.024379 W
            Runtime Dynamic = 0 W

          Branch Target Buffer:
            Area = 0.789969 mm^2
            Peak Dynamic = 0.0809601 W
            Subthreshold Leakage = 0.0368499 W
            Subthreshold Leakage with power gating = 0.021557 W
            Gate Leakage = 0.00333823 W
            Runtime Dynamic = 0.00404936 W

          Branch Predictor:
            Area = 0.139613 mm^2
            Peak Dynamic = 0.0270402 W
            Subthreshold Leakage = 0.00802563 W
            Subthreshold Leakage with power gating = 0.00469502 W
            Gate Leakage = 0.000631381 W
            Runtime Dynamic = 0.0015674 W

              Global Predictor:
                Area = 0.0443718 mm^2
                Peak Dynamic = 0.00780437 W
                Subthreshold Leakage = 0.00305314 W
                Subthreshold Leakage with power gating = 0.00178441 W
                Gate Leakage = 0.000231968 W
                Runtime Dynamic = 0.000454348 W

              Local Predictor:
              L1_Local Predictor:
                Area = 0.0264164 mm^2
                Peak Dynamic = 0.00635992 W
                Subthreshold Leakage = 0.00154459 W
                Subthreshold Leakage with power gating = 0.000902955 W
                Gate Leakage = 0.00012879 W
                Runtime Dynamic = 0.000391157 W

              L2_Local Predictor:
                Area = 0.0135618 mm^2
                Peak Dynamic = 0.00324353 W
                Subthreshold Leakage = 0.000782464 W
                Subthreshold Leakage with power gating = 0.000456083 W
                Gate Leakage = 6.76797e-05 W
                Runtime Dynamic = 0.000199562 W

              Chooser:
                Area = 0.0443718 mm^2
                Peak Dynamic = 0.00780437 W
                Subthreshold Leakage = 0.00305314 W
                Subthreshold Leakage with power gating = 0.00178441 W
                Gate Leakage = 0.000231968 W
                Runtime Dynamic = 0.000454348 W

              RAS:
                Area = 0.0108915 mm^2
                Peak Dynamic = 0.0050715 W
                Subthreshold Leakage = 0.000374753 W
                Subthreshold Leakage with power gating = 0.000223242 W
                Gate Leakage = 3.86548e-05 W
                Runtime Dynamic = 0.000267552 W

          Instruction Buffer:
            Area = 0.00619634 mm^2
            Peak Dynamic = 0.0429076 W
            Subthreshold Leakage = 0.000247453 W
            Subthreshold Leakage with power gating = 0.000138425 W
            Gate Leakage = 2.64138e-05 W
            Runtime Dynamic = 0.00596276 W

          Instruction Decoder:
            Area = 0.928993 mm^2
            Peak Dynamic = 0.286975 W
            Subthreshold Leakage = 0.178009 W
            Subthreshold Leakage with power gating = 0.080104 W
            Gate Leakage = 0.0185411 W
            Runtime Dynamic = 0.0598203 W

      Renaming Unit:
        Area = 0.241898 mm^2
        Peak Dynamic = 1.48759 W
        Subthreshold Leakage = 0.0231106 W
        Subthreshold Leakage with power gating = 0.0126861 W
        Gate Leakage = 0.00568019 W
        Runtime Dynamic = 0.0542022 W

          Int Front End RAT:
            Area = 0.0412007 mm^2
            Peak Dynamic = 0.079976 W
            Subthreshold Leakage = 0.00137358 W
            Subthreshold Leakage with power gating = 0.000782942 W
            Gate Leakage = 0.000185798 W
            Runtime Dynamic = 0.014549 W

          FP Front End RAT:
            Area = 0.168486 mm^2
            Peak Dynamic = 1.33648 W
            Subthreshold Leakage = 0.0175733 W
            Subthreshold Leakage with power gating = 0.0100168 W
            Gate Leakage = 0.00408109 W
            Runtime Dynamic = 0.0376215 W

          Free List:
            Area = 0.00946771 mm^2
            Peak Dynamic = 0.00429354 W
            Subthreshold Leakage = 0.000113339 W
            Subthreshold Leakage with power gating = 6.37662e-05 W
            Gate Leakage = 1.92322e-05 W
            Runtime Dynamic = 0.00203171 W

      Load Store Unit:
        Area = 7.63089 mm^2
        Peak Dynamic = 0.998498 W
        Subthreshold Leakage = 0.216468 W
        Subthreshold Leakage with power gating = 0.112592 W
        Gate Leakage = 0.0271839 W
        Runtime Dynamic = 0.277185 W

          Data Cache:
            Area = 5.88959 mm^2
            Peak Dynamic = 0.943094 W
            Subthreshold Leakage = 0.194743 W
            Subthreshold Leakage with power gating = 0.100694 W
            Gate Leakage = 0.0225409 W
            Runtime Dynamic = 0.197021 W

          LoadQ:
            Area = 0.083675 mm^2
            Peak Dynamic = 0.0135172 W
            Subthreshold Leakage = 0.00378553 W
            Subthreshold Leakage with power gating = 0.00215775 W
            Gate Leakage = 0.000499133 W
            Runtime Dynamic = 0.0135173 W

          StoreQ:
            Area = 0.322068 mm^2
            Peak Dynamic = 0.0333235 W
            Subthreshold Leakage = 0.0138897 W
            Subthreshold Leakage with power gating = 0.00791712 W
            Gate Leakage = 0.00274976 W
            Runtime Dynamic = 0.0666471 W

      Memory Management Unit:
        Area = 0.412258 mm^2
        Peak Dynamic = 0.120205 W
        Subthreshold Leakage = 0.0269355 W
        Subthreshold Leakage with power gating = 0.0148672 W
        Gate Leakage = 0.00541234 W
        Runtime Dynamic = 0.0116985 W

          Itlb:
            Area = 0.301544 mm^2
            Peak Dynamic = 0.0708356 W
            Subthreshold Leakage = 0.016628 W
            Subthreshold Leakage with power gating = 0.00947795 W
            Gate Leakage = 0.00327886 W
            Runtime Dynamic = 0 W

          Dtlb:
            Area = 0.087971 mm^2
            Peak Dynamic = 0.0116665 W
            Subthreshold Leakage = 0.0062572 W
            Subthreshold Leakage with power gating = 0.0035666 W
            Gate Leakage = 0.000739408 W
            Runtime Dynamic = 0.0116985 W

      Execution Unit:
        Area = 6.15969 mm^2
        Peak Dynamic = 1.10107 W
        Subthreshold Leakage = 0.610815 W
        Subthreshold Leakage with power gating = 0.276988 W
        Gate Leakage = 0.0843041 W
        Runtime Dynamic = 0.786194 W

          Register Files:
            Area = 0.189451 mm^2
            Peak Dynamic = 0.0148313 W
            Subthreshold Leakage = 0.00161932 W
            Subthreshold Leakage with power gating = 0.000808503 W
            Gate Leakage = 0.00019683 W
            Runtime Dynamic = 0.0125013 W

              Integer RF:
                Area = 0.116356 mm^2
                Peak Dynamic = 0.0111789 W
                Subthreshold Leakage = 0.000888822 W
                Subthreshold Leakage with power gating = 0.000427225 W
                Gate Leakage = 0.000113547 W
                Runtime Dynamic = 0.0108914 W

              Floating Point RF:
                Area = 0.0730949 mm^2
                Peak Dynamic = 0.00365235 W
                Subthreshold Leakage = 0.000730494 W
                Subthreshold Leakage with power gating = 0.000381278 W
                Gate Leakage = 8.32836e-05 W
                Runtime Dynamic = 0.00160989 W

          Instruction Scheduler:
            Area = 0.788091 mm^2
            Peak Dynamic = 0.882298 W
            Subthreshold Leakage = 0.0176111 W
            Subthreshold Leakage with power gating = 0.00996617 W
            Gate Leakage = 0.00235744 W
            Runtime Dynamic = 0.169148 W

              Instruction Window:
                Area = 0.270013 mm^2
                Peak Dynamic = 0.23762 W
                Subthreshold Leakage = 0.00886749 W
                Subthreshold Leakage with power gating = 0.00504561 W
                Gate Leakage = 0.00122144 W
                Runtime Dynamic = 0.0651804 W

              FP Instruction Window:
                Area = 0.316102 mm^2
                Peak Dynamic = 0.485481 W
                Subthreshold Leakage = 0.00651416 W
                Subthreshold Leakage with power gating = 0.00370421 W
                Gate Leakage = 0.000909172 W
                Runtime Dynamic = 0.0663029 W

              ROB:
                Area = 0.201976 mm^2
                Peak Dynamic = 0.159197 W
                Subthreshold Leakage = 0.00222944 W
                Subthreshold Leakage with power gating = 0.00121634 W
                Gate Leakage = 0.00022683 W
                Runtime Dynamic = 0.0376646 W

          Integer ALUs (Count: 3 ):
            Area = 0.235435 mm^2
            Peak Dynamic = 0.0643425 W
            Subthreshold Leakage = 0.0808216 W
            Subthreshold Leakage with power gating = 0.0363697 W
            Gate Leakage = 0.0110538 W
            Runtime Dynamic = 0.127232 W

          Floating Point Units (FPUs) (Count: 2 ):
            Area = 4.6585 mm^2
            Peak Dynamic = 0.0642349 W
            Subthreshold Leakage = 0.3998 W
            Subthreshold Leakage with power gating = 0.17991 W
            Gate Leakage = 0.0546797 W
            Runtime Dynamic = 0.237308 W

          Complex ALUs (Mul/Div) (Count: 1 ):
            Area = 0.235435 mm^2
            Peak Dynamic = 0.0127295 W
            Subthreshold Leakage = 0.0808216 W
            Subthreshold Leakage with power gating = 0.0363697 W
            Gate Leakage = 0.0110538 W
            Runtime Dynamic = 0.14951 W

          Results Broadcast Bus:
            Area Overhead = 0.0300341 mm^2
            Peak Dynamic = 0.0545955 W
            Subthreshold Leakage = 0.0260916 W
            Subthreshold Leakage with power gating = 0.0117412 W
            Gate Leakage = 0.00356849 W
            Runtime Dynamic = 0.0904946 W

    L2
    Area = 3.08398 mm^2
    Peak Dynamic = 0.00204715 W
    Subthreshold Leakage = 0.237347 W
    Subthreshold Leakage with power gating = 0.12756 W
    Gate Leakage = 0.0118838 W
    Runtime Dynamic = 0.000113821 W

*****************************************************************************************
Core:
      Area = 26.7488 mm^2
      Peak Dynamic = 5.39152 W
      Subthreshold Leakage = 2.23476 W
      Subthreshold Leakage with power gating = 1.06503 W
      Gate Leakage = 0.285988 W
      Runtime Dynamic = 1.22643 W

      Instruction Fetch Unit:
        Area = 4.82339 mm^2
        Peak Dynamic = 1.65658 W
        Subthreshold Leakage = 0.365421 W
        Subthreshold Leakage with power gating = 0.180734 W
        Gate Leakage = 0.0483102 W
        Runtime Dynamic = 0.0737484 W

          Instruction Cache:
            Area = 2.93588 mm^2
            Peak Dynamic = 1.18991 W
            Subthreshold Leakage = 0.138238 W
            Subthreshold Leakage with power gating = 0.0724173 W
            Gate Leakage = 0.024379 W
            Runtime Dynamic = 0 W

          Branch Target Buffer:
            Area = 0.789969 mm^2
            Peak Dynamic = 0.0809601 W
            Subthreshold Leakage = 0.0368499 W
            Subthreshold Leakage with power gating = 0.021557 W
            Gate Leakage = 0.00333823 W
            Runtime Dynamic = 0.004181 W

          Branch Predictor:
            Area = 0.139613 mm^2
            Peak Dynamic = 0.0270402 W
            Subthreshold Leakage = 0.00802563 W
            Subthreshold Leakage with power gating = 0.00469502 W
            Gate Leakage = 0.000631381 W
            Runtime Dynamic = 0.00161836 W

              Global Predictor:
                Area = 0.0443718 mm^2
                Peak Dynamic = 0.00780437 W
                Subthreshold Leakage = 0.00305314 W
                Subthreshold Leakage with power gating = 0.00178441 W
                Gate Leakage = 0.000231968 W
                Runtime Dynamic = 0.000469083 W

              Local Predictor:
              L1_Local Predictor:
                Area = 0.0264164 mm^2
                Peak Dynamic = 0.00635992 W
                Subthreshold Leakage = 0.00154459 W
                Subthreshold Leakage with power gating = 0.000902955 W
                Gate Leakage = 0.00012879 W
                Runtime Dynamic = 0.000403833 W

              L2_Local Predictor:
                Area = 0.0135618 mm^2
                Peak Dynamic = 0.00324353 W
                Subthreshold Leakage = 0.000782464 W
                Subthreshold Leakage with power gating = 0.000456083 W
                Gate Leakage = 6.76797e-05 W
                Runtime Dynamic = 0.000206029 W

              Chooser:
                Area = 0.0443718 mm^2
                Peak Dynamic = 0.00780437 W
                Subthreshold Leakage = 0.00305314 W
                Subthreshold Leakage with power gating = 0.00178441 W
                Gate Leakage = 0.000231968 W
                Runtime Dynamic = 0.000469083 W

              RAS:
                Area = 0.0108915 mm^2
                Peak Dynamic = 0.0050715 W
                Subthreshold Leakage = 0.000374753 W
                Subthreshold Leakage with power gating = 0.000223242 W
                Gate Leakage = 3.86548e-05 W
                Runtime Dynamic = 0.000276361 W

          Instruction Buffer:
            Area = 0.00619634 mm^2
            Peak Dynamic = 0.0429076 W
            Subthreshold Leakage = 0.000247453 W
            Subthreshold Leakage with power gating = 0.000138425 W
            Gate Leakage = 2.64138e-05 W
            Runtime Dynamic = 0.00615909 W

          Instruction Decoder:
            Area = 0.928993 mm^2
            Peak Dynamic = 0.286975 W
            Subthreshold Leakage = 0.178009 W
            Subthreshold Leakage with power gating = 0.080104 W
            Gate Leakage = 0.0185411 W
            Runtime Dynamic = 0.0617899 W

      Renaming Unit:
        Area = 0.241898 mm^2
        Peak Dynamic = 1.48759 W
        Subthreshold Leakage = 0.0231106 W
        Subthreshold Leakage with power gating = 0.0126861 W
        Gate Leakage = 0.00568019 W
        Runtime Dynamic = 0.0559811 W

          Int Front End RAT:
            Area = 0.0412007 mm^2
            Peak Dynamic = 0.079976 W
            Subthreshold Leakage = 0.00137358 W
            Subthreshold Leakage with power gating = 0.000782942 W
            Gate Leakage = 0.000185798 W
            Runtime Dynamic = 0.0150286 W

          FP Front End RAT:
            Area = 0.168486 mm^2
            Peak Dynamic = 1.33648 W
            Subthreshold Leakage = 0.0175733 W
            Subthreshold Leakage with power gating = 0.0100168 W
            Gate Leakage = 0.00408109 W
            Runtime Dynamic = 0.038854 W

          Free List:
            Area = 0.00946771 mm^2
            Peak Dynamic = 0.00429354 W
            Subthreshold Leakage = 0.000113339 W
            Subthreshold Leakage with power gating = 6.37662e-05 W
            Gate Leakage = 1.92322e-05 W
            Runtime Dynamic = 0.00209857 W

      Load Store Unit:
        Area = 7.63089 mm^2
        Peak Dynamic = 1.01392 W
        Subthreshold Leakage = 0.216468 W
        Subthreshold Leakage with power gating = 0.112592 W
        Gate Leakage = 0.0271839 W
        Runtime Dynamic = 0.28627 W

          Data Cache:
            Area = 5.88959 mm^2
            Peak Dynamic = 0.9567 W
            Subthreshold Leakage = 0.194743 W
            Subthreshold Leakage with power gating = 0.100694 W
            Gate Leakage = 0.0225409 W
            Runtime Dynamic = 0.203479 W

          LoadQ:
            Area = 0.083675 mm^2
            Peak Dynamic = 0.0139601 W
            Subthreshold Leakage = 0.00378553 W
            Subthreshold Leakage with power gating = 0.00215775 W
            Gate Leakage = 0.000499133 W
            Runtime Dynamic = 0.0139602 W

          StoreQ:
            Area = 0.322068 mm^2
            Peak Dynamic = 0.0344154 W
            Subthreshold Leakage = 0.0138897 W
            Subthreshold Leakage with power gating = 0.00791712 W
            Gate Leakage = 0.00274976 W
            Runtime Dynamic = 0.0688308 W

      Memory Management Unit:
        Area = 0.412258 mm^2
        Peak Dynamic = 0.12306 W
        Subthreshold Leakage = 0.0269355 W
        Subthreshold Leakage with power gating = 0.0148672 W
        Gate Leakage = 0.00541234 W
        Runtime Dynamic = 0.0120819 W

          Itlb:
            Area = 0.301544 mm^2
            Peak Dynamic = 0.0731679 W
            Subthreshold Leakage = 0.016628 W
            Subthreshold Leakage with power gating = 0.00947795 W
            Gate Leakage = 0.00327886 W
            Runtime Dynamic = 0 W

          Dtlb:
            Area = 0.087971 mm^2
            Peak Dynamic = 0.0120488 W
            Subthreshold Leakage = 0.0062572 W
            Subthreshold Leakage with power gating = 0.0035666 W
            Gate Leakage = 0.000739408 W
            Runtime Dynamic = 0.0120819 W

      Execution Unit:
        Area = 6.15969 mm^2
        Peak Dynamic = 1.10825 W
        Subthreshold Leakage = 0.610815 W
        Subthreshold Leakage with power gating = 0.276988 W
        Gate Leakage = 0.0843041 W
        Runtime Dynamic = 0.798163 W

          Register Files:
            Area = 0.189451 mm^2
            Peak Dynamic = 0.0153182 W
            Subthreshold Leakage = 0.00161932 W
            Subthreshold Leakage with power gating = 0.000808503 W
            Gate Leakage = 0.00019683 W
            Runtime Dynamic = 0.0129129 W

              Integer RF:
                Area = 0.116356 mm^2
                Peak Dynamic = 0.0115461 W
                Subthreshold Leakage = 0.000888822 W
                Subthreshold Leakage with power gating = 0.000427225 W
                Gate Leakage = 0.000113547 W
                Runtime Dynamic = 0.01125 W

              Floating Point RF:
                Area = 0.0730949 mm^2
                Peak Dynamic = 0.00377205 W
                Subthreshold Leakage = 0.000730494 W
                Subthreshold Leakage with power gating = 0.000381278 W
                Gate Leakage = 8.32836e-05 W
                Runtime Dynamic = 0.0016629 W

          Instruction Scheduler:
            Area = 0.788091 mm^2
            Peak Dynamic = 0.882298 W
            Subthreshold Leakage = 0.0176111 W
            Subthreshold Leakage with power gating = 0.00996617 W
            Gate Leakage = 0.00235744 W
            Runtime Dynamic = 0.174716 W

              Instruction Window:
                Area = 0.270013 mm^2
                Peak Dynamic = 0.23762 W
                Subthreshold Leakage = 0.00886749 W
                Subthreshold Leakage with power gating = 0.00504561 W
                Gate Leakage = 0.00122144 W
                Runtime Dynamic = 0.0673265 W

              FP Instruction Window:
                Area = 0.316102 mm^2
                Peak Dynamic = 0.485481 W
                Subthreshold Leakage = 0.00651416 W
                Subthreshold Leakage with power gating = 0.00370421 W
                Gate Leakage = 0.000909172 W
                Runtime Dynamic = 0.068486 W

              ROB:
                Area = 0.201976 mm^2
                Peak Dynamic = 0.159197 W
                Subthreshold Leakage = 0.00222944 W
                Subthreshold Leakage with power gating = 0.00121634 W
                Gate Leakage = 0.00022683 W
                Runtime Dynamic = 0.0389032 W

          Integer ALUs (Count: 3 ):
            Area = 0.235435 mm^2
            Peak Dynamic = 0.0664628 W
            Subthreshold Leakage = 0.0808216 W
            Subthreshold Leakage with power gating = 0.0363697 W
            Gate Leakage = 0.0110538 W
            Runtime Dynamic = 0.129105 W

          Floating Point Units (FPUs) (Count: 2 ):
            Area = 4.6585 mm^2
            Peak Dynamic = 0.06634 W
            Subthreshold Leakage = 0.3998 W
            Subthreshold Leakage with power gating = 0.17991 W
            Gate Leakage = 0.0546797 W
            Runtime Dynamic = 0.238166 W

          Complex ALUs (Mul/Div) (Count: 1 ):
            Area = 0.235435 mm^2
            Peak Dynamic = 0.0131415 W
            Subthreshold Leakage = 0.0808216 W
            Subthreshold Leakage with power gating = 0.0363697 W
            Gate Leakage = 0.0110538 W
            Runtime Dynamic = 0.149793 W

          Results Broadcast Bus:
            Area Overhead = 0.0300341 mm^2
            Peak Dynamic = 0.0563877 W
            Subthreshold Leakage = 0.0260916 W
            Subthreshold Leakage with power gating = 0.0117412 W
            Gate Leakage = 0.00356849 W
            Runtime Dynamic = 0.0934698 W

    L2
    Area = 3.08398 mm^2
    Peak Dynamic = 0.0021216 W
    Subthreshold Leakage = 0.237347 W
    Subthreshold Leakage with power gating = 0.12756 W
    Gate Leakage = 0.0118838 W
    Runtime Dynamic = 0.000118526 W

*****************************************************************************************
Core:
      Area = 26.7488 mm^2
      Peak Dynamic = 5.29634 W
      Subthreshold Leakage = 2.23476 W
      Subthreshold Leakage with power gating = 1.06503 W
      Gate Leakage = 0.285988 W
      Runtime Dynamic = 1.18845 W

      Instruction Fetch Unit:
        Area = 4.82339 mm^2
        Peak Dynamic = 1.59954 W
        Subthreshold Leakage = 0.365421 W
        Subthreshold Leakage with power gating = 0.180734 W
        Gate Leakage = 0.0483102 W
        Runtime Dynamic = 0.0702922 W

          Instruction Cache:
            Area = 2.93588 mm^2
            Peak Dynamic = 1.13422 W
            Subthreshold Leakage = 0.138238 W
            Subthreshold Leakage with power gating = 0.0724173 W
            Gate Leakage = 0.024379 W
            Runtime Dynamic = 0 W

          Branch Target Buffer:
            Area = 0.789969 mm^2
            Peak Dynamic = 0.0809601 W
            Subthreshold Leakage = 0.0368499 W
            Subthreshold Leakage with power gating = 0.021557 W
            Gate Leakage = 0.00333823 W
            Runtime Dynamic = 0.00398225 W

          Branch Predictor:
            Area = 0.139613 mm^2
            Peak Dynamic = 0.0270402 W
            Subthreshold Leakage = 0.00802563 W
            Subthreshold Leakage with power gating = 0.00469502 W
            Gate Leakage = 0.000631381 W
            Runtime Dynamic = 0.00154143 W

              Global Predictor:
                Area = 0.0443718 mm^2
                Peak Dynamic = 0.00780437 W
                Subthreshold Leakage = 0.00305314 W
                Subthreshold Leakage with power gating = 0.00178441 W
                Gate Leakage = 0.000231968 W
                Runtime Dynamic = 0.000446719 W

              Local Predictor:
              L1_Local Predictor:
                Area = 0.0264164 mm^2
                Peak Dynamic = 0.00635992 W
                Subthreshold Leakage = 0.00154459 W
                Subthreshold Leakage with power gating = 0.000902955 W
                Gate Leakage = 0.00012879 W
                Runtime Dynamic = 0.000384561 W

              L2_Local Predictor:
                Area = 0.0135618 mm^2
                Peak Dynamic = 0.00324353 W
                Subthreshold Leakage = 0.000782464 W
                Subthreshold Leakage with power gating = 0.000456083 W
                Gate Leakage = 6.76797e-05 W
                Runtime Dynamic = 0.000196197 W

              Chooser:
                Area = 0.0443718 mm^2
                Peak Dynamic = 0.00780437 W
                Subthreshold Leakage = 0.00305314 W
                Subthreshold Leakage with power gating = 0.00178441 W
                Gate Leakage = 0.000231968 W
                Runtime Dynamic = 0.000446719 W

              RAS:
                Area = 0.0108915 mm^2
                Peak Dynamic = 0.0050715 W
                Subthreshold Leakage = 0.000374753 W
                Subthreshold Leakage with power gating = 0.000223242 W
                Gate Leakage = 3.86548e-05 W
                Runtime Dynamic = 0.000263425 W

          Instruction Buffer:
            Area = 0.00619634 mm^2
            Peak Dynamic = 0.0429076 W
            Subthreshold Leakage = 0.000247453 W
            Subthreshold Leakage with power gating = 0.000138425 W
            Gate Leakage = 2.64138e-05 W
            Runtime Dynamic = 0.0058708 W

          Instruction Decoder:
            Area = 0.928993 mm^2
            Peak Dynamic = 0.286975 W
            Subthreshold Leakage = 0.178009 W
            Subthreshold Leakage with power gating = 0.080104 W
            Gate Leakage = 0.0185411 W
            Runtime Dynamic = 0.0588978 W

      Renaming Unit:
        Area = 0.241898 mm^2
        Peak Dynamic = 1.48759 W
        Subthreshold Leakage = 0.0231106 W
        Subthreshold Leakage with power gating = 0.0126861 W
        Gate Leakage = 0.00568019 W
        Runtime Dynamic = 0.0533597 W

          Int Front End RAT:
            Area = 0.0412007 mm^2
            Peak Dynamic = 0.079976 W
            Subthreshold Leakage = 0.00137358 W
            Subthreshold Leakage with power gating = 0.000782942 W
            Gate Leakage = 0.000185798 W
            Runtime Dynamic = 0.014326 W

          FP Front End RAT:
            Area = 0.168486 mm^2
            Peak Dynamic = 1.33648 W
            Subthreshold Leakage = 0.0175733 W
            Subthreshold Leakage with power gating = 0.0100168 W
            Gate Leakage = 0.00408109 W
            Runtime Dynamic = 0.0370334 W

          Free List:
            Area = 0.00946771 mm^2
            Peak Dynamic = 0.00429354 W
            Subthreshold Leakage = 0.000113339 W
            Subthreshold Leakage with power gating = 6.37662e-05 W
            Gate Leakage = 1.92322e-05 W
            Runtime Dynamic = 0.00200033 W

      Load Store Unit:
        Area = 7.63089 mm^2
        Peak Dynamic = 0.990699 W
        Subthreshold Leakage = 0.216468 W
        Subthreshold Leakage with power gating = 0.112592 W
        Gate Leakage = 0.0271839 W
        Runtime Dynamic = 0.272587 W

          Data Cache:
            Area = 5.88959 mm^2
            Peak Dynamic = 0.936213 W
            Subthreshold Leakage = 0.194743 W
            Subthreshold Leakage with power gating = 0.100694 W
            Gate Leakage = 0.0225409 W
            Runtime Dynamic = 0.193751 W

          LoadQ:
            Area = 0.083675 mm^2
            Peak Dynamic = 0.0132932 W
            Subthreshold Leakage = 0.00378553 W
            Subthreshold Leakage with power gating = 0.00215775 W
            Gate Leakage = 0.000499133 W
            Runtime Dynamic = 0.0132933 W

          StoreQ:
            Area = 0.322068 mm^2
            Peak Dynamic = 0.0327713 W
            Subthreshold Leakage = 0.0138897 W
            Subthreshold Leakage with power gating = 0.00791712 W
            Gate Leakage = 0.00274976 W
            Runtime Dynamic = 0.0655427 W

      Memory Management Unit:
        Area = 0.412258 mm^2
        Peak Dynamic = 0.118848 W
        Subthreshold Leakage = 0.0269355 W
        Subthreshold Leakage with power gating = 0.0148672 W
        Gate Leakage = 0.00541234 W
        Runtime Dynamic = 0.0115047 W

          Itlb:
            Area = 0.301544 mm^2
            Peak Dynamic = 0.0697432 W
            Subthreshold Leakage = 0.016628 W
            Subthreshold Leakage with power gating = 0.00947795 W
            Gate Leakage = 0.00327886 W
            Runtime Dynamic = 0 W

          Dtlb:
            Area = 0.087971 mm^2
            Peak Dynamic = 0.0114732 W
            Subthreshold Leakage = 0.0062572 W
            Subthreshold Leakage with power gating = 0.0035666 W
            Gate Leakage = 0.000739408 W
            Runtime Dynamic = 0.0115047 W

      Execution Unit:
        Area = 6.15969 mm^2
        Peak Dynamic = 1.09764 W
        Subthreshold Leakage = 0.610815 W
        Subthreshold Leakage with power gating = 0.276988 W
        Gate Leakage = 0.0843041 W
        Runtime Dynamic = 0.780534 W

          Register Files:
            Area = 0.189451 mm^2
            Peak Dynamic = 0.0145992 W
            Subthreshold Leakage = 0.00161932 W
            Subthreshold Leakage with power gating = 0.000808503 W
            Gate Leakage = 0.00019683 W
            Runtime Dynamic = 0.0123085 W

              Integer RF:
                Area = 0.116356 mm^2
                Peak Dynamic = 0.0110039 W
                Subthreshold Leakage = 0.000888822 W
                Subthreshold Leakage with power gating = 0.000427225 W
                Gate Leakage = 0.000113547 W
                Runtime Dynamic = 0.0107235 W

              Floating Point RF:
                Area = 0.0730949 mm^2
                Peak Dynamic = 0.00359526 W
                Subthreshold Leakage = 0.000730494 W
                Subthreshold Leakage with power gating = 0.000381278 W
                Gate Leakage = 8.32836e-05 W
                Runtime Dynamic = 0.00158506 W

          Instruction Scheduler:
            Area = 0.788091 mm^2
            Peak Dynamic = 0.882298 W
            Subthreshold Leakage = 0.0176111 W
            Subthreshold Leakage with power gating = 0.00996617 W
            Gate Leakage = 0.00235744 W
            Runtime Dynamic = 0.166532 W

              Instruction Window:
                Area = 0.270013 mm^2
                Peak Dynamic = 0.23762 W
                Subthreshold Leakage = 0.00886749 W
                Subthreshold Leakage with power gating = 0.00504561 W
                Gate Leakage = 0.00122144 W
                Runtime Dynamic = 0.0641752 W

              FP Instruction Window:
                Area = 0.316102 mm^2
                Peak Dynamic = 0.485481 W
                Subthreshold Leakage = 0.00651416 W
                Subthreshold Leakage with power gating = 0.00370421 W
                Gate Leakage = 0.000909172 W
                Runtime Dynamic = 0.0652804 W

              ROB:
                Area = 0.201976 mm^2
                Peak Dynamic = 0.159197 W
                Subthreshold Leakage = 0.00222944 W
                Subthreshold Leakage with power gating = 0.00121634 W
                Gate Leakage = 0.00022683 W
                Runtime Dynamic = 0.0370761 W

          Integer ALUs (Count: 3 ):
            Area = 0.235435 mm^2
            Peak Dynamic = 0.0633522 W
            Subthreshold Leakage = 0.0808216 W
            Subthreshold Leakage with power gating = 0.0363697 W
            Gate Leakage = 0.0110538 W
            Runtime Dynamic = 0.126351 W

          Floating Point Units (FPUs) (Count: 2 ):
            Area = 4.6585 mm^2
            Peak Dynamic = 0.0632309 W
            Subthreshold Leakage = 0.3998 W
            Subthreshold Leakage with power gating = 0.17991 W
            Gate Leakage = 0.0546797 W
            Runtime Dynamic = 0.236899 W

          Complex ALUs (Mul/Div) (Count: 1 ):
            Area = 0.235435 mm^2
            Peak Dynamic = 0.0125145 W
            Subthreshold Leakage = 0.0808216 W
            Subthreshold Leakage with power gating = 0.0363697 W
            Gate Leakage = 0.0110538 W
            Runtime Dynamic = 0.149362 W

          Results Broadcast Bus:
            Area Overhead = 0.0300341 mm^2
            Peak Dynamic = 0.0537379 W
            Subthreshold Leakage = 0.0260916 W
            Subthreshold Leakage with power gating = 0.0117412 W
            Gate Leakage = 0.00356849 W
            Runtime Dynamic = 0.0890819 W

    L2
    Area = 3.08398 mm^2
    Peak Dynamic = 0.00201614 W
    Subthreshold Leakage = 0.237347 W
    Subthreshold Leakage with power gating = 0.12756 W
    Gate Leakage = 0.0118838 W
    Runtime Dynamic = 0.000108729 W

*****************************************************************************************
      L3
      Area = 62.2194 mm^2
      Peak Dynamic = 0.00753816 W
      Subthreshold Leakage = 2.73753 W
      Subthreshold Leakage with power gating = 1.55288 W
      Gate Leakage = 0.0404867 W
      Runtime Dynamic = 0.00465682 W

*****************************************************************************************
BUSES
      Area = 0.673906 mm^2
      Peak Dynamic = 0 W
      Subthreshold Leakage = 0.0302265 W
      Subthreshold Leakage with power gating = 0.0136019 W
      Gate Leakage = 0.00601057 W
      Runtime Dynamic = 0 W

      Bus: 
        Area = 0.673906 mm^2
        Peak Dynamic = 0 W
        Subthreshold Leakage = 0.0302265 W
        Subthreshold Leakage with power gating = 0.0136019 W
        Gate Leakage = 0.00601057 W
        Runtime Dynamic = 0 W

*****************************************************************************************
